# generated using pymatgen
data_Li2MgMn3O8
_symmetry_space_group_name_H-M   'P 1'
_cell_length_a   33.31980800
_cell_length_b   33.31980800
_cell_length_c   33.31980800
_cell_angle_alpha   90.00000000
_cell_angle_beta   90.00000000
_cell_angle_gamma   90.00000000
_symmetry_Int_Tables_number   1
_chemical_formula_structural   Li2MgMn3O8
_chemical_formula_sum   'Li512 Mg256 Mn768 O2048'
_cell_volume   36991.97088358
_cell_formula_units_Z   256
loop_
 _symmetry_equiv_pos_site_id
 _symmetry_equiv_pos_as_xyz
  1  'x, y, z'
loop_
 _atom_site_type_symbol
 _atom_site_label
 _atom_site_symmetry_multiplicity
 _atom_site_fract_x
 _atom_site_fract_y
 _atom_site_fract_z
 _atom_site_occupancy
  Li  Li0  1  0.12418550  0.24918550  0.12581450  1
  Li  Li1  1  0.12418550  0.24918550  0.37581450  1
  Li  Li2  1  0.12418550  0.24918550  0.62581450  1
  Li  Li3  1  0.12418550  0.24918550  0.87581450  1
  Li  Li4  1  0.12418550  0.49918550  0.12581450  1
  Li  Li5  1  0.12418550  0.49918550  0.37581450  1
  Li  Li6  1  0.12418550  0.49918550  0.62581450  1
  Li  Li7  1  0.12418550  0.49918550  0.87581450  1
  Li  Li8  1  0.12418550  0.74918550  0.12581450  1
  Li  Li9  1  0.12418550  0.74918550  0.37581450  1
  Li  Li10  1  0.12418550  0.74918550  0.62581450  1
  Li  Li11  1  0.12418550  0.74918550  0.87581450  1
  Li  Li12  1  0.12418550  0.99918550  0.12581450  1
  Li  Li13  1  0.12418550  0.99918550  0.37581450  1
  Li  Li14  1  0.12418550  0.99918550  0.62581450  1
  Li  Li15  1  0.12418550  0.99918550  0.87581450  1
  Li  Li16  1  0.37418550  0.24918550  0.12581450  1
  Li  Li17  1  0.37418550  0.24918550  0.37581450  1
  Li  Li18  1  0.37418550  0.24918550  0.62581450  1
  Li  Li19  1  0.37418550  0.24918550  0.87581450  1
  Li  Li20  1  0.37418550  0.49918550  0.12581450  1
  Li  Li21  1  0.37418550  0.49918550  0.37581450  1
  Li  Li22  1  0.37418550  0.49918550  0.62581450  1
  Li  Li23  1  0.37418550  0.49918550  0.87581450  1
  Li  Li24  1  0.37418550  0.74918550  0.12581450  1
  Li  Li25  1  0.37418550  0.74918550  0.37581450  1
  Li  Li26  1  0.37418550  0.74918550  0.62581450  1
  Li  Li27  1  0.37418550  0.74918550  0.87581450  1
  Li  Li28  1  0.37418550  0.99918550  0.12581450  1
  Li  Li29  1  0.37418550  0.99918550  0.37581450  1
  Li  Li30  1  0.37418550  0.99918550  0.62581450  1
  Li  Li31  1  0.37418550  0.99918550  0.87581450  1
  Li  Li32  1  0.62418550  0.24918550  0.12581450  1
  Li  Li33  1  0.62418550  0.24918550  0.37581450  1
  Li  Li34  1  0.62418550  0.24918550  0.62581450  1
  Li  Li35  1  0.62418550  0.24918550  0.87581450  1
  Li  Li36  1  0.62418550  0.49918550  0.12581450  1
  Li  Li37  1  0.62418550  0.49918550  0.37581450  1
  Li  Li38  1  0.62418550  0.49918550  0.62581450  1
  Li  Li39  1  0.62418550  0.49918550  0.87581450  1
  Li  Li40  1  0.62418550  0.74918550  0.12581450  1
  Li  Li41  1  0.62418550  0.74918550  0.37581450  1
  Li  Li42  1  0.62418550  0.74918550  0.62581450  1
  Li  Li43  1  0.62418550  0.74918550  0.87581450  1
  Li  Li44  1  0.62418550  0.99918550  0.12581450  1
  Li  Li45  1  0.62418550  0.99918550  0.37581450  1
  Li  Li46  1  0.62418550  0.99918550  0.62581450  1
  Li  Li47  1  0.62418550  0.99918550  0.87581450  1
  Li  Li48  1  0.87418550  0.24918550  0.12581450  1
  Li  Li49  1  0.87418550  0.24918550  0.37581450  1
  Li  Li50  1  0.87418550  0.24918550  0.62581450  1
  Li  Li51  1  0.87418550  0.24918550  0.87581450  1
  Li  Li52  1  0.87418550  0.49918550  0.12581450  1
  Li  Li53  1  0.87418550  0.49918550  0.37581450  1
  Li  Li54  1  0.87418550  0.49918550  0.62581450  1
  Li  Li55  1  0.87418550  0.49918550  0.87581450  1
  Li  Li56  1  0.87418550  0.74918550  0.12581450  1
  Li  Li57  1  0.87418550  0.74918550  0.37581450  1
  Li  Li58  1  0.87418550  0.74918550  0.62581450  1
  Li  Li59  1  0.87418550  0.74918550  0.87581450  1
  Li  Li60  1  0.87418550  0.99918550  0.12581450  1
  Li  Li61  1  0.87418550  0.99918550  0.37581450  1
  Li  Li62  1  0.87418550  0.99918550  0.62581450  1
  Li  Li63  1  0.87418550  0.99918550  0.87581450  1
  Li  Li64  1  0.06168550  0.06168550  0.06168550  1
  Li  Li65  1  0.06168550  0.06168550  0.31168550  1
  Li  Li66  1  0.06168550  0.06168550  0.56168550  1
  Li  Li67  1  0.06168550  0.06168550  0.81168550  1
  Li  Li68  1  0.06168550  0.31168550  0.06168550  1
  Li  Li69  1  0.06168550  0.31168550  0.31168550  1
  Li  Li70  1  0.06168550  0.31168550  0.56168550  1
  Li  Li71  1  0.06168550  0.31168550  0.81168550  1
  Li  Li72  1  0.06168550  0.56168550  0.06168550  1
  Li  Li73  1  0.06168550  0.56168550  0.31168550  1
  Li  Li74  1  0.06168550  0.56168550  0.56168550  1
  Li  Li75  1  0.06168550  0.56168550  0.81168550  1
  Li  Li76  1  0.06168550  0.81168550  0.06168550  1
  Li  Li77  1  0.06168550  0.81168550  0.31168550  1
  Li  Li78  1  0.06168550  0.81168550  0.56168550  1
  Li  Li79  1  0.06168550  0.81168550  0.81168550  1
  Li  Li80  1  0.31168550  0.06168550  0.06168550  1
  Li  Li81  1  0.31168550  0.06168550  0.31168550  1
  Li  Li82  1  0.31168550  0.06168550  0.56168550  1
  Li  Li83  1  0.31168550  0.06168550  0.81168550  1
  Li  Li84  1  0.31168550  0.31168550  0.06168550  1
  Li  Li85  1  0.31168550  0.31168550  0.31168550  1
  Li  Li86  1  0.31168550  0.31168550  0.56168550  1
  Li  Li87  1  0.31168550  0.31168550  0.81168550  1
  Li  Li88  1  0.31168550  0.56168550  0.06168550  1
  Li  Li89  1  0.31168550  0.56168550  0.31168550  1
  Li  Li90  1  0.31168550  0.56168550  0.56168550  1
  Li  Li91  1  0.31168550  0.56168550  0.81168550  1
  Li  Li92  1  0.31168550  0.81168550  0.06168550  1
  Li  Li93  1  0.31168550  0.81168550  0.31168550  1
  Li  Li94  1  0.31168550  0.81168550  0.56168550  1
  Li  Li95  1  0.31168550  0.81168550  0.81168550  1
  Li  Li96  1  0.56168550  0.06168550  0.06168550  1
  Li  Li97  1  0.56168550  0.06168550  0.31168550  1
  Li  Li98  1  0.56168550  0.06168550  0.56168550  1
  Li  Li99  1  0.56168550  0.06168550  0.81168550  1
  Li  Li100  1  0.56168550  0.31168550  0.06168550  1
  Li  Li101  1  0.56168550  0.31168550  0.31168550  1
  Li  Li102  1  0.56168550  0.31168550  0.56168550  1
  Li  Li103  1  0.56168550  0.31168550  0.81168550  1
  Li  Li104  1  0.56168550  0.56168550  0.06168550  1
  Li  Li105  1  0.56168550  0.56168550  0.31168550  1
  Li  Li106  1  0.56168550  0.56168550  0.56168550  1
  Li  Li107  1  0.56168550  0.56168550  0.81168550  1
  Li  Li108  1  0.56168550  0.81168550  0.06168550  1
  Li  Li109  1  0.56168550  0.81168550  0.31168550  1
  Li  Li110  1  0.56168550  0.81168550  0.56168550  1
  Li  Li111  1  0.56168550  0.81168550  0.81168550  1
  Li  Li112  1  0.81168550  0.06168550  0.06168550  1
  Li  Li113  1  0.81168550  0.06168550  0.31168550  1
  Li  Li114  1  0.81168550  0.06168550  0.56168550  1
  Li  Li115  1  0.81168550  0.06168550  0.81168550  1
  Li  Li116  1  0.81168550  0.31168550  0.06168550  1
  Li  Li117  1  0.81168550  0.31168550  0.31168550  1
  Li  Li118  1  0.81168550  0.31168550  0.56168550  1
  Li  Li119  1  0.81168550  0.31168550  0.81168550  1
  Li  Li120  1  0.81168550  0.56168550  0.06168550  1
  Li  Li121  1  0.81168550  0.56168550  0.31168550  1
  Li  Li122  1  0.81168550  0.56168550  0.56168550  1
  Li  Li123  1  0.81168550  0.56168550  0.81168550  1
  Li  Li124  1  0.81168550  0.81168550  0.06168550  1
  Li  Li125  1  0.81168550  0.81168550  0.31168550  1
  Li  Li126  1  0.81168550  0.81168550  0.56168550  1
  Li  Li127  1  0.81168550  0.81168550  0.81168550  1
  Li  Li128  1  0.06331450  0.18831450  0.18668550  1
  Li  Li129  1  0.06331450  0.18831450  0.43668550  1
  Li  Li130  1  0.06331450  0.18831450  0.68668550  1
  Li  Li131  1  0.06331450  0.18831450  0.93668550  1
  Li  Li132  1  0.06331450  0.43831450  0.18668550  1
  Li  Li133  1  0.06331450  0.43831450  0.43668550  1
  Li  Li134  1  0.06331450  0.43831450  0.68668550  1
  Li  Li135  1  0.06331450  0.43831450  0.93668550  1
  Li  Li136  1  0.06331450  0.68831450  0.18668550  1
  Li  Li137  1  0.06331450  0.68831450  0.43668550  1
  Li  Li138  1  0.06331450  0.68831450  0.68668550  1
  Li  Li139  1  0.06331450  0.68831450  0.93668550  1
  Li  Li140  1  0.06331450  0.93831450  0.18668550  1
  Li  Li141  1  0.06331450  0.93831450  0.43668550  1
  Li  Li142  1  0.06331450  0.93831450  0.68668550  1
  Li  Li143  1  0.06331450  0.93831450  0.93668550  1
  Li  Li144  1  0.31331450  0.18831450  0.18668550  1
  Li  Li145  1  0.31331450  0.18831450  0.43668550  1
  Li  Li146  1  0.31331450  0.18831450  0.68668550  1
  Li  Li147  1  0.31331450  0.18831450  0.93668550  1
  Li  Li148  1  0.31331450  0.43831450  0.18668550  1
  Li  Li149  1  0.31331450  0.43831450  0.43668550  1
  Li  Li150  1  0.31331450  0.43831450  0.68668550  1
  Li  Li151  1  0.31331450  0.43831450  0.93668550  1
  Li  Li152  1  0.31331450  0.68831450  0.18668550  1
  Li  Li153  1  0.31331450  0.68831450  0.43668550  1
  Li  Li154  1  0.31331450  0.68831450  0.68668550  1
  Li  Li155  1  0.31331450  0.68831450  0.93668550  1
  Li  Li156  1  0.31331450  0.93831450  0.18668550  1
  Li  Li157  1  0.31331450  0.93831450  0.43668550  1
  Li  Li158  1  0.31331450  0.93831450  0.68668550  1
  Li  Li159  1  0.31331450  0.93831450  0.93668550  1
  Li  Li160  1  0.56331450  0.18831450  0.18668550  1
  Li  Li161  1  0.56331450  0.18831450  0.43668550  1
  Li  Li162  1  0.56331450  0.18831450  0.68668550  1
  Li  Li163  1  0.56331450  0.18831450  0.93668550  1
  Li  Li164  1  0.56331450  0.43831450  0.18668550  1
  Li  Li165  1  0.56331450  0.43831450  0.43668550  1
  Li  Li166  1  0.56331450  0.43831450  0.68668550  1
  Li  Li167  1  0.56331450  0.43831450  0.93668550  1
  Li  Li168  1  0.56331450  0.68831450  0.18668550  1
  Li  Li169  1  0.56331450  0.68831450  0.43668550  1
  Li  Li170  1  0.56331450  0.68831450  0.68668550  1
  Li  Li171  1  0.56331450  0.68831450  0.93668550  1
  Li  Li172  1  0.56331450  0.93831450  0.18668550  1
  Li  Li173  1  0.56331450  0.93831450  0.43668550  1
  Li  Li174  1  0.56331450  0.93831450  0.68668550  1
  Li  Li175  1  0.56331450  0.93831450  0.93668550  1
  Li  Li176  1  0.81331450  0.18831450  0.18668550  1
  Li  Li177  1  0.81331450  0.18831450  0.43668550  1
  Li  Li178  1  0.81331450  0.18831450  0.68668550  1
  Li  Li179  1  0.81331450  0.18831450  0.93668550  1
  Li  Li180  1  0.81331450  0.43831450  0.18668550  1
  Li  Li181  1  0.81331450  0.43831450  0.43668550  1
  Li  Li182  1  0.81331450  0.43831450  0.68668550  1
  Li  Li183  1  0.81331450  0.43831450  0.93668550  1
  Li  Li184  1  0.81331450  0.68831450  0.18668550  1
  Li  Li185  1  0.81331450  0.68831450  0.43668550  1
  Li  Li186  1  0.81331450  0.68831450  0.68668550  1
  Li  Li187  1  0.81331450  0.68831450  0.93668550  1
  Li  Li188  1  0.81331450  0.93831450  0.18668550  1
  Li  Li189  1  0.81331450  0.93831450  0.43668550  1
  Li  Li190  1  0.81331450  0.93831450  0.68668550  1
  Li  Li191  1  0.81331450  0.93831450  0.93668550  1
  Li  Li192  1  0.18668550  0.06331450  0.18831450  1
  Li  Li193  1  0.18668550  0.06331450  0.43831450  1
  Li  Li194  1  0.18668550  0.06331450  0.68831450  1
  Li  Li195  1  0.18668550  0.06331450  0.93831450  1
  Li  Li196  1  0.18668550  0.31331450  0.18831450  1
  Li  Li197  1  0.18668550  0.31331450  0.43831450  1
  Li  Li198  1  0.18668550  0.31331450  0.68831450  1
  Li  Li199  1  0.18668550  0.31331450  0.93831450  1
  Li  Li200  1  0.18668550  0.56331450  0.18831450  1
  Li  Li201  1  0.18668550  0.56331450  0.43831450  1
  Li  Li202  1  0.18668550  0.56331450  0.68831450  1
  Li  Li203  1  0.18668550  0.56331450  0.93831450  1
  Li  Li204  1  0.18668550  0.81331450  0.18831450  1
  Li  Li205  1  0.18668550  0.81331450  0.43831450  1
  Li  Li206  1  0.18668550  0.81331450  0.68831450  1
  Li  Li207  1  0.18668550  0.81331450  0.93831450  1
  Li  Li208  1  0.43668550  0.06331450  0.18831450  1
  Li  Li209  1  0.43668550  0.06331450  0.43831450  1
  Li  Li210  1  0.43668550  0.06331450  0.68831450  1
  Li  Li211  1  0.43668550  0.06331450  0.93831450  1
  Li  Li212  1  0.43668550  0.31331450  0.18831450  1
  Li  Li213  1  0.43668550  0.31331450  0.43831450  1
  Li  Li214  1  0.43668550  0.31331450  0.68831450  1
  Li  Li215  1  0.43668550  0.31331450  0.93831450  1
  Li  Li216  1  0.43668550  0.56331450  0.18831450  1
  Li  Li217  1  0.43668550  0.56331450  0.43831450  1
  Li  Li218  1  0.43668550  0.56331450  0.68831450  1
  Li  Li219  1  0.43668550  0.56331450  0.93831450  1
  Li  Li220  1  0.43668550  0.81331450  0.18831450  1
  Li  Li221  1  0.43668550  0.81331450  0.43831450  1
  Li  Li222  1  0.43668550  0.81331450  0.68831450  1
  Li  Li223  1  0.43668550  0.81331450  0.93831450  1
  Li  Li224  1  0.68668550  0.06331450  0.18831450  1
  Li  Li225  1  0.68668550  0.06331450  0.43831450  1
  Li  Li226  1  0.68668550  0.06331450  0.68831450  1
  Li  Li227  1  0.68668550  0.06331450  0.93831450  1
  Li  Li228  1  0.68668550  0.31331450  0.18831450  1
  Li  Li229  1  0.68668550  0.31331450  0.43831450  1
  Li  Li230  1  0.68668550  0.31331450  0.68831450  1
  Li  Li231  1  0.68668550  0.31331450  0.93831450  1
  Li  Li232  1  0.68668550  0.56331450  0.18831450  1
  Li  Li233  1  0.68668550  0.56331450  0.43831450  1
  Li  Li234  1  0.68668550  0.56331450  0.68831450  1
  Li  Li235  1  0.68668550  0.56331450  0.93831450  1
  Li  Li236  1  0.68668550  0.81331450  0.18831450  1
  Li  Li237  1  0.68668550  0.81331450  0.43831450  1
  Li  Li238  1  0.68668550  0.81331450  0.68831450  1
  Li  Li239  1  0.68668550  0.81331450  0.93831450  1
  Li  Li240  1  0.93668550  0.06331450  0.18831450  1
  Li  Li241  1  0.93668550  0.06331450  0.43831450  1
  Li  Li242  1  0.93668550  0.06331450  0.68831450  1
  Li  Li243  1  0.93668550  0.06331450  0.93831450  1
  Li  Li244  1  0.93668550  0.31331450  0.18831450  1
  Li  Li245  1  0.93668550  0.31331450  0.43831450  1
  Li  Li246  1  0.93668550  0.31331450  0.68831450  1
  Li  Li247  1  0.93668550  0.31331450  0.93831450  1
  Li  Li248  1  0.93668550  0.56331450  0.18831450  1
  Li  Li249  1  0.93668550  0.56331450  0.43831450  1
  Li  Li250  1  0.93668550  0.56331450  0.68831450  1
  Li  Li251  1  0.93668550  0.56331450  0.93831450  1
  Li  Li252  1  0.93668550  0.81331450  0.18831450  1
  Li  Li253  1  0.93668550  0.81331450  0.43831450  1
  Li  Li254  1  0.93668550  0.81331450  0.68831450  1
  Li  Li255  1  0.93668550  0.81331450  0.93831450  1
  Li  Li256  1  0.24918550  0.12581450  0.12418550  1
  Li  Li257  1  0.24918550  0.12581450  0.37418550  1
  Li  Li258  1  0.24918550  0.12581450  0.62418550  1
  Li  Li259  1  0.24918550  0.12581450  0.87418550  1
  Li  Li260  1  0.24918550  0.37581450  0.12418550  1
  Li  Li261  1  0.24918550  0.37581450  0.37418550  1
  Li  Li262  1  0.24918550  0.37581450  0.62418550  1
  Li  Li263  1  0.24918550  0.37581450  0.87418550  1
  Li  Li264  1  0.24918550  0.62581450  0.12418550  1
  Li  Li265  1  0.24918550  0.62581450  0.37418550  1
  Li  Li266  1  0.24918550  0.62581450  0.62418550  1
  Li  Li267  1  0.24918550  0.62581450  0.87418550  1
  Li  Li268  1  0.24918550  0.87581450  0.12418550  1
  Li  Li269  1  0.24918550  0.87581450  0.37418550  1
  Li  Li270  1  0.24918550  0.87581450  0.62418550  1
  Li  Li271  1  0.24918550  0.87581450  0.87418550  1
  Li  Li272  1  0.49918550  0.12581450  0.12418550  1
  Li  Li273  1  0.49918550  0.12581450  0.37418550  1
  Li  Li274  1  0.49918550  0.12581450  0.62418550  1
  Li  Li275  1  0.49918550  0.12581450  0.87418550  1
  Li  Li276  1  0.49918550  0.37581450  0.12418550  1
  Li  Li277  1  0.49918550  0.37581450  0.37418550  1
  Li  Li278  1  0.49918550  0.37581450  0.62418550  1
  Li  Li279  1  0.49918550  0.37581450  0.87418550  1
  Li  Li280  1  0.49918550  0.62581450  0.12418550  1
  Li  Li281  1  0.49918550  0.62581450  0.37418550  1
  Li  Li282  1  0.49918550  0.62581450  0.62418550  1
  Li  Li283  1  0.49918550  0.62581450  0.87418550  1
  Li  Li284  1  0.49918550  0.87581450  0.12418550  1
  Li  Li285  1  0.49918550  0.87581450  0.37418550  1
  Li  Li286  1  0.49918550  0.87581450  0.62418550  1
  Li  Li287  1  0.49918550  0.87581450  0.87418550  1
  Li  Li288  1  0.74918550  0.12581450  0.12418550  1
  Li  Li289  1  0.74918550  0.12581450  0.37418550  1
  Li  Li290  1  0.74918550  0.12581450  0.62418550  1
  Li  Li291  1  0.74918550  0.12581450  0.87418550  1
  Li  Li292  1  0.74918550  0.37581450  0.12418550  1
  Li  Li293  1  0.74918550  0.37581450  0.37418550  1
  Li  Li294  1  0.74918550  0.37581450  0.62418550  1
  Li  Li295  1  0.74918550  0.37581450  0.87418550  1
  Li  Li296  1  0.74918550  0.62581450  0.12418550  1
  Li  Li297  1  0.74918550  0.62581450  0.37418550  1
  Li  Li298  1  0.74918550  0.62581450  0.62418550  1
  Li  Li299  1  0.74918550  0.62581450  0.87418550  1
  Li  Li300  1  0.74918550  0.87581450  0.12418550  1
  Li  Li301  1  0.74918550  0.87581450  0.37418550  1
  Li  Li302  1  0.74918550  0.87581450  0.62418550  1
  Li  Li303  1  0.74918550  0.87581450  0.87418550  1
  Li  Li304  1  0.99918550  0.12581450  0.12418550  1
  Li  Li305  1  0.99918550  0.12581450  0.37418550  1
  Li  Li306  1  0.99918550  0.12581450  0.62418550  1
  Li  Li307  1  0.99918550  0.12581450  0.87418550  1
  Li  Li308  1  0.99918550  0.37581450  0.12418550  1
  Li  Li309  1  0.99918550  0.37581450  0.37418550  1
  Li  Li310  1  0.99918550  0.37581450  0.62418550  1
  Li  Li311  1  0.99918550  0.37581450  0.87418550  1
  Li  Li312  1  0.99918550  0.62581450  0.12418550  1
  Li  Li313  1  0.99918550  0.62581450  0.37418550  1
  Li  Li314  1  0.99918550  0.62581450  0.62418550  1
  Li  Li315  1  0.99918550  0.62581450  0.87418550  1
  Li  Li316  1  0.99918550  0.87581450  0.12418550  1
  Li  Li317  1  0.99918550  0.87581450  0.37418550  1
  Li  Li318  1  0.99918550  0.87581450  0.62418550  1
  Li  Li319  1  0.99918550  0.87581450  0.87418550  1
  Li  Li320  1  0.18831450  0.18668550  0.06331450  1
  Li  Li321  1  0.18831450  0.18668550  0.31331450  1
  Li  Li322  1  0.18831450  0.18668550  0.56331450  1
  Li  Li323  1  0.18831450  0.18668550  0.81331450  1
  Li  Li324  1  0.18831450  0.43668550  0.06331450  1
  Li  Li325  1  0.18831450  0.43668550  0.31331450  1
  Li  Li326  1  0.18831450  0.43668550  0.56331450  1
  Li  Li327  1  0.18831450  0.43668550  0.81331450  1
  Li  Li328  1  0.18831450  0.68668550  0.06331450  1
  Li  Li329  1  0.18831450  0.68668550  0.31331450  1
  Li  Li330  1  0.18831450  0.68668550  0.56331450  1
  Li  Li331  1  0.18831450  0.68668550  0.81331450  1
  Li  Li332  1  0.18831450  0.93668550  0.06331450  1
  Li  Li333  1  0.18831450  0.93668550  0.31331450  1
  Li  Li334  1  0.18831450  0.93668550  0.56331450  1
  Li  Li335  1  0.18831450  0.93668550  0.81331450  1
  Li  Li336  1  0.43831450  0.18668550  0.06331450  1
  Li  Li337  1  0.43831450  0.18668550  0.31331450  1
  Li  Li338  1  0.43831450  0.18668550  0.56331450  1
  Li  Li339  1  0.43831450  0.18668550  0.81331450  1
  Li  Li340  1  0.43831450  0.43668550  0.06331450  1
  Li  Li341  1  0.43831450  0.43668550  0.31331450  1
  Li  Li342  1  0.43831450  0.43668550  0.56331450  1
  Li  Li343  1  0.43831450  0.43668550  0.81331450  1
  Li  Li344  1  0.43831450  0.68668550  0.06331450  1
  Li  Li345  1  0.43831450  0.68668550  0.31331450  1
  Li  Li346  1  0.43831450  0.68668550  0.56331450  1
  Li  Li347  1  0.43831450  0.68668550  0.81331450  1
  Li  Li348  1  0.43831450  0.93668550  0.06331450  1
  Li  Li349  1  0.43831450  0.93668550  0.31331450  1
  Li  Li350  1  0.43831450  0.93668550  0.56331450  1
  Li  Li351  1  0.43831450  0.93668550  0.81331450  1
  Li  Li352  1  0.68831450  0.18668550  0.06331450  1
  Li  Li353  1  0.68831450  0.18668550  0.31331450  1
  Li  Li354  1  0.68831450  0.18668550  0.56331450  1
  Li  Li355  1  0.68831450  0.18668550  0.81331450  1
  Li  Li356  1  0.68831450  0.43668550  0.06331450  1
  Li  Li357  1  0.68831450  0.43668550  0.31331450  1
  Li  Li358  1  0.68831450  0.43668550  0.56331450  1
  Li  Li359  1  0.68831450  0.43668550  0.81331450  1
  Li  Li360  1  0.68831450  0.68668550  0.06331450  1
  Li  Li361  1  0.68831450  0.68668550  0.31331450  1
  Li  Li362  1  0.68831450  0.68668550  0.56331450  1
  Li  Li363  1  0.68831450  0.68668550  0.81331450  1
  Li  Li364  1  0.68831450  0.93668550  0.06331450  1
  Li  Li365  1  0.68831450  0.93668550  0.31331450  1
  Li  Li366  1  0.68831450  0.93668550  0.56331450  1
  Li  Li367  1  0.68831450  0.93668550  0.81331450  1
  Li  Li368  1  0.93831450  0.18668550  0.06331450  1
  Li  Li369  1  0.93831450  0.18668550  0.31331450  1
  Li  Li370  1  0.93831450  0.18668550  0.56331450  1
  Li  Li371  1  0.93831450  0.18668550  0.81331450  1
  Li  Li372  1  0.93831450  0.43668550  0.06331450  1
  Li  Li373  1  0.93831450  0.43668550  0.31331450  1
  Li  Li374  1  0.93831450  0.43668550  0.56331450  1
  Li  Li375  1  0.93831450  0.43668550  0.81331450  1
  Li  Li376  1  0.93831450  0.68668550  0.06331450  1
  Li  Li377  1  0.93831450  0.68668550  0.31331450  1
  Li  Li378  1  0.93831450  0.68668550  0.56331450  1
  Li  Li379  1  0.93831450  0.68668550  0.81331450  1
  Li  Li380  1  0.93831450  0.93668550  0.06331450  1
  Li  Li381  1  0.93831450  0.93668550  0.31331450  1
  Li  Li382  1  0.93831450  0.93668550  0.56331450  1
  Li  Li383  1  0.93831450  0.93668550  0.81331450  1
  Li  Li384  1  0.12581450  0.12418550  0.24918550  1
  Li  Li385  1  0.12581450  0.12418550  0.49918550  1
  Li  Li386  1  0.12581450  0.12418550  0.74918550  1
  Li  Li387  1  0.12581450  0.12418550  0.99918550  1
  Li  Li388  1  0.12581450  0.37418550  0.24918550  1
  Li  Li389  1  0.12581450  0.37418550  0.49918550  1
  Li  Li390  1  0.12581450  0.37418550  0.74918550  1
  Li  Li391  1  0.12581450  0.37418550  0.99918550  1
  Li  Li392  1  0.12581450  0.62418550  0.24918550  1
  Li  Li393  1  0.12581450  0.62418550  0.49918550  1
  Li  Li394  1  0.12581450  0.62418550  0.74918550  1
  Li  Li395  1  0.12581450  0.62418550  0.99918550  1
  Li  Li396  1  0.12581450  0.87418550  0.24918550  1
  Li  Li397  1  0.12581450  0.87418550  0.49918550  1
  Li  Li398  1  0.12581450  0.87418550  0.74918550  1
  Li  Li399  1  0.12581450  0.87418550  0.99918550  1
  Li  Li400  1  0.37581450  0.12418550  0.24918550  1
  Li  Li401  1  0.37581450  0.12418550  0.49918550  1
  Li  Li402  1  0.37581450  0.12418550  0.74918550  1
  Li  Li403  1  0.37581450  0.12418550  0.99918550  1
  Li  Li404  1  0.37581450  0.37418550  0.24918550  1
  Li  Li405  1  0.37581450  0.37418550  0.49918550  1
  Li  Li406  1  0.37581450  0.37418550  0.74918550  1
  Li  Li407  1  0.37581450  0.37418550  0.99918550  1
  Li  Li408  1  0.37581450  0.62418550  0.24918550  1
  Li  Li409  1  0.37581450  0.62418550  0.49918550  1
  Li  Li410  1  0.37581450  0.62418550  0.74918550  1
  Li  Li411  1  0.37581450  0.62418550  0.99918550  1
  Li  Li412  1  0.37581450  0.87418550  0.24918550  1
  Li  Li413  1  0.37581450  0.87418550  0.49918550  1
  Li  Li414  1  0.37581450  0.87418550  0.74918550  1
  Li  Li415  1  0.37581450  0.87418550  0.99918550  1
  Li  Li416  1  0.62581450  0.12418550  0.24918550  1
  Li  Li417  1  0.62581450  0.12418550  0.49918550  1
  Li  Li418  1  0.62581450  0.12418550  0.74918550  1
  Li  Li419  1  0.62581450  0.12418550  0.99918550  1
  Li  Li420  1  0.62581450  0.37418550  0.24918550  1
  Li  Li421  1  0.62581450  0.37418550  0.49918550  1
  Li  Li422  1  0.62581450  0.37418550  0.74918550  1
  Li  Li423  1  0.62581450  0.37418550  0.99918550  1
  Li  Li424  1  0.62581450  0.62418550  0.24918550  1
  Li  Li425  1  0.62581450  0.62418550  0.49918550  1
  Li  Li426  1  0.62581450  0.62418550  0.74918550  1
  Li  Li427  1  0.62581450  0.62418550  0.99918550  1
  Li  Li428  1  0.62581450  0.87418550  0.24918550  1
  Li  Li429  1  0.62581450  0.87418550  0.49918550  1
  Li  Li430  1  0.62581450  0.87418550  0.74918550  1
  Li  Li431  1  0.62581450  0.87418550  0.99918550  1
  Li  Li432  1  0.87581450  0.12418550  0.24918550  1
  Li  Li433  1  0.87581450  0.12418550  0.49918550  1
  Li  Li434  1  0.87581450  0.12418550  0.74918550  1
  Li  Li435  1  0.87581450  0.12418550  0.99918550  1
  Li  Li436  1  0.87581450  0.37418550  0.24918550  1
  Li  Li437  1  0.87581450  0.37418550  0.49918550  1
  Li  Li438  1  0.87581450  0.37418550  0.74918550  1
  Li  Li439  1  0.87581450  0.37418550  0.99918550  1
  Li  Li440  1  0.87581450  0.62418550  0.24918550  1
  Li  Li441  1  0.87581450  0.62418550  0.49918550  1
  Li  Li442  1  0.87581450  0.62418550  0.74918550  1
  Li  Li443  1  0.87581450  0.62418550  0.99918550  1
  Li  Li444  1  0.87581450  0.87418550  0.24918550  1
  Li  Li445  1  0.87581450  0.87418550  0.49918550  1
  Li  Li446  1  0.87581450  0.87418550  0.74918550  1
  Li  Li447  1  0.87581450  0.87418550  0.99918550  1
  Li  Li448  1  0.00081450  0.00081450  0.00081450  1
  Li  Li449  1  0.00081450  0.00081450  0.25081450  1
  Li  Li450  1  0.00081450  0.00081450  0.50081450  1
  Li  Li451  1  0.00081450  0.00081450  0.75081450  1
  Li  Li452  1  0.00081450  0.25081450  0.00081450  1
  Li  Li453  1  0.00081450  0.25081450  0.25081450  1
  Li  Li454  1  0.00081450  0.25081450  0.50081450  1
  Li  Li455  1  0.00081450  0.25081450  0.75081450  1
  Li  Li456  1  0.00081450  0.50081450  0.00081450  1
  Li  Li457  1  0.00081450  0.50081450  0.25081450  1
  Li  Li458  1  0.00081450  0.50081450  0.50081450  1
  Li  Li459  1  0.00081450  0.50081450  0.75081450  1
  Li  Li460  1  0.00081450  0.75081450  0.00081450  1
  Li  Li461  1  0.00081450  0.75081450  0.25081450  1
  Li  Li462  1  0.00081450  0.75081450  0.50081450  1
  Li  Li463  1  0.00081450  0.75081450  0.75081450  1
  Li  Li464  1  0.25081450  0.00081450  0.00081450  1
  Li  Li465  1  0.25081450  0.00081450  0.25081450  1
  Li  Li466  1  0.25081450  0.00081450  0.50081450  1
  Li  Li467  1  0.25081450  0.00081450  0.75081450  1
  Li  Li468  1  0.25081450  0.25081450  0.00081450  1
  Li  Li469  1  0.25081450  0.25081450  0.25081450  1
  Li  Li470  1  0.25081450  0.25081450  0.50081450  1
  Li  Li471  1  0.25081450  0.25081450  0.75081450  1
  Li  Li472  1  0.25081450  0.50081450  0.00081450  1
  Li  Li473  1  0.25081450  0.50081450  0.25081450  1
  Li  Li474  1  0.25081450  0.50081450  0.50081450  1
  Li  Li475  1  0.25081450  0.50081450  0.75081450  1
  Li  Li476  1  0.25081450  0.75081450  0.00081450  1
  Li  Li477  1  0.25081450  0.75081450  0.25081450  1
  Li  Li478  1  0.25081450  0.75081450  0.50081450  1
  Li  Li479  1  0.25081450  0.75081450  0.75081450  1
  Li  Li480  1  0.50081450  0.00081450  0.00081450  1
  Li  Li481  1  0.50081450  0.00081450  0.25081450  1
  Li  Li482  1  0.50081450  0.00081450  0.50081450  1
  Li  Li483  1  0.50081450  0.00081450  0.75081450  1
  Li  Li484  1  0.50081450  0.25081450  0.00081450  1
  Li  Li485  1  0.50081450  0.25081450  0.25081450  1
  Li  Li486  1  0.50081450  0.25081450  0.50081450  1
  Li  Li487  1  0.50081450  0.25081450  0.75081450  1
  Li  Li488  1  0.50081450  0.50081450  0.00081450  1
  Li  Li489  1  0.50081450  0.50081450  0.25081450  1
  Li  Li490  1  0.50081450  0.50081450  0.50081450  1
  Li  Li491  1  0.50081450  0.50081450  0.75081450  1
  Li  Li492  1  0.50081450  0.75081450  0.00081450  1
  Li  Li493  1  0.50081450  0.75081450  0.25081450  1
  Li  Li494  1  0.50081450  0.75081450  0.50081450  1
  Li  Li495  1  0.50081450  0.75081450  0.75081450  1
  Li  Li496  1  0.75081450  0.00081450  0.00081450  1
  Li  Li497  1  0.75081450  0.00081450  0.25081450  1
  Li  Li498  1  0.75081450  0.00081450  0.50081450  1
  Li  Li499  1  0.75081450  0.00081450  0.75081450  1
  Li  Li500  1  0.75081450  0.25081450  0.00081450  1
  Li  Li501  1  0.75081450  0.25081450  0.25081450  1
  Li  Li502  1  0.75081450  0.25081450  0.50081450  1
  Li  Li503  1  0.75081450  0.25081450  0.75081450  1
  Li  Li504  1  0.75081450  0.50081450  0.00081450  1
  Li  Li505  1  0.75081450  0.50081450  0.25081450  1
  Li  Li506  1  0.75081450  0.50081450  0.50081450  1
  Li  Li507  1  0.75081450  0.50081450  0.75081450  1
  Li  Li508  1  0.75081450  0.75081450  0.00081450  1
  Li  Li509  1  0.75081450  0.75081450  0.25081450  1
  Li  Li510  1  0.75081450  0.75081450  0.50081450  1
  Li  Li511  1  0.75081450  0.75081450  0.75081450  1
  Mg  Mg512  1  0.09375000  0.03125000  0.21875000  1
  Mg  Mg513  1  0.09375000  0.03125000  0.46875000  1
  Mg  Mg514  1  0.09375000  0.03125000  0.71875000  1
  Mg  Mg515  1  0.09375000  0.03125000  0.96875000  1
  Mg  Mg516  1  0.09375000  0.28125000  0.21875000  1
  Mg  Mg517  1  0.09375000  0.28125000  0.46875000  1
  Mg  Mg518  1  0.09375000  0.28125000  0.71875000  1
  Mg  Mg519  1  0.09375000  0.28125000  0.96875000  1
  Mg  Mg520  1  0.09375000  0.53125000  0.21875000  1
  Mg  Mg521  1  0.09375000  0.53125000  0.46875000  1
  Mg  Mg522  1  0.09375000  0.53125000  0.71875000  1
  Mg  Mg523  1  0.09375000  0.53125000  0.96875000  1
  Mg  Mg524  1  0.09375000  0.78125000  0.21875000  1
  Mg  Mg525  1  0.09375000  0.78125000  0.46875000  1
  Mg  Mg526  1  0.09375000  0.78125000  0.71875000  1
  Mg  Mg527  1  0.09375000  0.78125000  0.96875000  1
  Mg  Mg528  1  0.34375000  0.03125000  0.21875000  1
  Mg  Mg529  1  0.34375000  0.03125000  0.46875000  1
  Mg  Mg530  1  0.34375000  0.03125000  0.71875000  1
  Mg  Mg531  1  0.34375000  0.03125000  0.96875000  1
  Mg  Mg532  1  0.34375000  0.28125000  0.21875000  1
  Mg  Mg533  1  0.34375000  0.28125000  0.46875000  1
  Mg  Mg534  1  0.34375000  0.28125000  0.71875000  1
  Mg  Mg535  1  0.34375000  0.28125000  0.96875000  1
  Mg  Mg536  1  0.34375000  0.53125000  0.21875000  1
  Mg  Mg537  1  0.34375000  0.53125000  0.46875000  1
  Mg  Mg538  1  0.34375000  0.53125000  0.71875000  1
  Mg  Mg539  1  0.34375000  0.53125000  0.96875000  1
  Mg  Mg540  1  0.34375000  0.78125000  0.21875000  1
  Mg  Mg541  1  0.34375000  0.78125000  0.46875000  1
  Mg  Mg542  1  0.34375000  0.78125000  0.71875000  1
  Mg  Mg543  1  0.34375000  0.78125000  0.96875000  1
  Mg  Mg544  1  0.59375000  0.03125000  0.21875000  1
  Mg  Mg545  1  0.59375000  0.03125000  0.46875000  1
  Mg  Mg546  1  0.59375000  0.03125000  0.71875000  1
  Mg  Mg547  1  0.59375000  0.03125000  0.96875000  1
  Mg  Mg548  1  0.59375000  0.28125000  0.21875000  1
  Mg  Mg549  1  0.59375000  0.28125000  0.46875000  1
  Mg  Mg550  1  0.59375000  0.28125000  0.71875000  1
  Mg  Mg551  1  0.59375000  0.28125000  0.96875000  1
  Mg  Mg552  1  0.59375000  0.53125000  0.21875000  1
  Mg  Mg553  1  0.59375000  0.53125000  0.46875000  1
  Mg  Mg554  1  0.59375000  0.53125000  0.71875000  1
  Mg  Mg555  1  0.59375000  0.53125000  0.96875000  1
  Mg  Mg556  1  0.59375000  0.78125000  0.21875000  1
  Mg  Mg557  1  0.59375000  0.78125000  0.46875000  1
  Mg  Mg558  1  0.59375000  0.78125000  0.71875000  1
  Mg  Mg559  1  0.59375000  0.78125000  0.96875000  1
  Mg  Mg560  1  0.84375000  0.03125000  0.21875000  1
  Mg  Mg561  1  0.84375000  0.03125000  0.46875000  1
  Mg  Mg562  1  0.84375000  0.03125000  0.71875000  1
  Mg  Mg563  1  0.84375000  0.03125000  0.96875000  1
  Mg  Mg564  1  0.84375000  0.28125000  0.21875000  1
  Mg  Mg565  1  0.84375000  0.28125000  0.46875000  1
  Mg  Mg566  1  0.84375000  0.28125000  0.71875000  1
  Mg  Mg567  1  0.84375000  0.28125000  0.96875000  1
  Mg  Mg568  1  0.84375000  0.53125000  0.21875000  1
  Mg  Mg569  1  0.84375000  0.53125000  0.46875000  1
  Mg  Mg570  1  0.84375000  0.53125000  0.71875000  1
  Mg  Mg571  1  0.84375000  0.53125000  0.96875000  1
  Mg  Mg572  1  0.84375000  0.78125000  0.21875000  1
  Mg  Mg573  1  0.84375000  0.78125000  0.46875000  1
  Mg  Mg574  1  0.84375000  0.78125000  0.71875000  1
  Mg  Mg575  1  0.84375000  0.78125000  0.96875000  1
  Mg  Mg576  1  0.03125000  0.21875000  0.09375000  1
  Mg  Mg577  1  0.03125000  0.21875000  0.34375000  1
  Mg  Mg578  1  0.03125000  0.21875000  0.59375000  1
  Mg  Mg579  1  0.03125000  0.21875000  0.84375000  1
  Mg  Mg580  1  0.03125000  0.46875000  0.09375000  1
  Mg  Mg581  1  0.03125000  0.46875000  0.34375000  1
  Mg  Mg582  1  0.03125000  0.46875000  0.59375000  1
  Mg  Mg583  1  0.03125000  0.46875000  0.84375000  1
  Mg  Mg584  1  0.03125000  0.71875000  0.09375000  1
  Mg  Mg585  1  0.03125000  0.71875000  0.34375000  1
  Mg  Mg586  1  0.03125000  0.71875000  0.59375000  1
  Mg  Mg587  1  0.03125000  0.71875000  0.84375000  1
  Mg  Mg588  1  0.03125000  0.96875000  0.09375000  1
  Mg  Mg589  1  0.03125000  0.96875000  0.34375000  1
  Mg  Mg590  1  0.03125000  0.96875000  0.59375000  1
  Mg  Mg591  1  0.03125000  0.96875000  0.84375000  1
  Mg  Mg592  1  0.28125000  0.21875000  0.09375000  1
  Mg  Mg593  1  0.28125000  0.21875000  0.34375000  1
  Mg  Mg594  1  0.28125000  0.21875000  0.59375000  1
  Mg  Mg595  1  0.28125000  0.21875000  0.84375000  1
  Mg  Mg596  1  0.28125000  0.46875000  0.09375000  1
  Mg  Mg597  1  0.28125000  0.46875000  0.34375000  1
  Mg  Mg598  1  0.28125000  0.46875000  0.59375000  1
  Mg  Mg599  1  0.28125000  0.46875000  0.84375000  1
  Mg  Mg600  1  0.28125000  0.71875000  0.09375000  1
  Mg  Mg601  1  0.28125000  0.71875000  0.34375000  1
  Mg  Mg602  1  0.28125000  0.71875000  0.59375000  1
  Mg  Mg603  1  0.28125000  0.71875000  0.84375000  1
  Mg  Mg604  1  0.28125000  0.96875000  0.09375000  1
  Mg  Mg605  1  0.28125000  0.96875000  0.34375000  1
  Mg  Mg606  1  0.28125000  0.96875000  0.59375000  1
  Mg  Mg607  1  0.28125000  0.96875000  0.84375000  1
  Mg  Mg608  1  0.53125000  0.21875000  0.09375000  1
  Mg  Mg609  1  0.53125000  0.21875000  0.34375000  1
  Mg  Mg610  1  0.53125000  0.21875000  0.59375000  1
  Mg  Mg611  1  0.53125000  0.21875000  0.84375000  1
  Mg  Mg612  1  0.53125000  0.46875000  0.09375000  1
  Mg  Mg613  1  0.53125000  0.46875000  0.34375000  1
  Mg  Mg614  1  0.53125000  0.46875000  0.59375000  1
  Mg  Mg615  1  0.53125000  0.46875000  0.84375000  1
  Mg  Mg616  1  0.53125000  0.71875000  0.09375000  1
  Mg  Mg617  1  0.53125000  0.71875000  0.34375000  1
  Mg  Mg618  1  0.53125000  0.71875000  0.59375000  1
  Mg  Mg619  1  0.53125000  0.71875000  0.84375000  1
  Mg  Mg620  1  0.53125000  0.96875000  0.09375000  1
  Mg  Mg621  1  0.53125000  0.96875000  0.34375000  1
  Mg  Mg622  1  0.53125000  0.96875000  0.59375000  1
  Mg  Mg623  1  0.53125000  0.96875000  0.84375000  1
  Mg  Mg624  1  0.78125000  0.21875000  0.09375000  1
  Mg  Mg625  1  0.78125000  0.21875000  0.34375000  1
  Mg  Mg626  1  0.78125000  0.21875000  0.59375000  1
  Mg  Mg627  1  0.78125000  0.21875000  0.84375000  1
  Mg  Mg628  1  0.78125000  0.46875000  0.09375000  1
  Mg  Mg629  1  0.78125000  0.46875000  0.34375000  1
  Mg  Mg630  1  0.78125000  0.46875000  0.59375000  1
  Mg  Mg631  1  0.78125000  0.46875000  0.84375000  1
  Mg  Mg632  1  0.78125000  0.71875000  0.09375000  1
  Mg  Mg633  1  0.78125000  0.71875000  0.34375000  1
  Mg  Mg634  1  0.78125000  0.71875000  0.59375000  1
  Mg  Mg635  1  0.78125000  0.71875000  0.84375000  1
  Mg  Mg636  1  0.78125000  0.96875000  0.09375000  1
  Mg  Mg637  1  0.78125000  0.96875000  0.34375000  1
  Mg  Mg638  1  0.78125000  0.96875000  0.59375000  1
  Mg  Mg639  1  0.78125000  0.96875000  0.84375000  1
  Mg  Mg640  1  0.21875000  0.09375000  0.03125000  1
  Mg  Mg641  1  0.21875000  0.09375000  0.28125000  1
  Mg  Mg642  1  0.21875000  0.09375000  0.53125000  1
  Mg  Mg643  1  0.21875000  0.09375000  0.78125000  1
  Mg  Mg644  1  0.21875000  0.34375000  0.03125000  1
  Mg  Mg645  1  0.21875000  0.34375000  0.28125000  1
  Mg  Mg646  1  0.21875000  0.34375000  0.53125000  1
  Mg  Mg647  1  0.21875000  0.34375000  0.78125000  1
  Mg  Mg648  1  0.21875000  0.59375000  0.03125000  1
  Mg  Mg649  1  0.21875000  0.59375000  0.28125000  1
  Mg  Mg650  1  0.21875000  0.59375000  0.53125000  1
  Mg  Mg651  1  0.21875000  0.59375000  0.78125000  1
  Mg  Mg652  1  0.21875000  0.84375000  0.03125000  1
  Mg  Mg653  1  0.21875000  0.84375000  0.28125000  1
  Mg  Mg654  1  0.21875000  0.84375000  0.53125000  1
  Mg  Mg655  1  0.21875000  0.84375000  0.78125000  1
  Mg  Mg656  1  0.46875000  0.09375000  0.03125000  1
  Mg  Mg657  1  0.46875000  0.09375000  0.28125000  1
  Mg  Mg658  1  0.46875000  0.09375000  0.53125000  1
  Mg  Mg659  1  0.46875000  0.09375000  0.78125000  1
  Mg  Mg660  1  0.46875000  0.34375000  0.03125000  1
  Mg  Mg661  1  0.46875000  0.34375000  0.28125000  1
  Mg  Mg662  1  0.46875000  0.34375000  0.53125000  1
  Mg  Mg663  1  0.46875000  0.34375000  0.78125000  1
  Mg  Mg664  1  0.46875000  0.59375000  0.03125000  1
  Mg  Mg665  1  0.46875000  0.59375000  0.28125000  1
  Mg  Mg666  1  0.46875000  0.59375000  0.53125000  1
  Mg  Mg667  1  0.46875000  0.59375000  0.78125000  1
  Mg  Mg668  1  0.46875000  0.84375000  0.03125000  1
  Mg  Mg669  1  0.46875000  0.84375000  0.28125000  1
  Mg  Mg670  1  0.46875000  0.84375000  0.53125000  1
  Mg  Mg671  1  0.46875000  0.84375000  0.78125000  1
  Mg  Mg672  1  0.71875000  0.09375000  0.03125000  1
  Mg  Mg673  1  0.71875000  0.09375000  0.28125000  1
  Mg  Mg674  1  0.71875000  0.09375000  0.53125000  1
  Mg  Mg675  1  0.71875000  0.09375000  0.78125000  1
  Mg  Mg676  1  0.71875000  0.34375000  0.03125000  1
  Mg  Mg677  1  0.71875000  0.34375000  0.28125000  1
  Mg  Mg678  1  0.71875000  0.34375000  0.53125000  1
  Mg  Mg679  1  0.71875000  0.34375000  0.78125000  1
  Mg  Mg680  1  0.71875000  0.59375000  0.03125000  1
  Mg  Mg681  1  0.71875000  0.59375000  0.28125000  1
  Mg  Mg682  1  0.71875000  0.59375000  0.53125000  1
  Mg  Mg683  1  0.71875000  0.59375000  0.78125000  1
  Mg  Mg684  1  0.71875000  0.84375000  0.03125000  1
  Mg  Mg685  1  0.71875000  0.84375000  0.28125000  1
  Mg  Mg686  1  0.71875000  0.84375000  0.53125000  1
  Mg  Mg687  1  0.71875000  0.84375000  0.78125000  1
  Mg  Mg688  1  0.96875000  0.09375000  0.03125000  1
  Mg  Mg689  1  0.96875000  0.09375000  0.28125000  1
  Mg  Mg690  1  0.96875000  0.09375000  0.53125000  1
  Mg  Mg691  1  0.96875000  0.09375000  0.78125000  1
  Mg  Mg692  1  0.96875000  0.34375000  0.03125000  1
  Mg  Mg693  1  0.96875000  0.34375000  0.28125000  1
  Mg  Mg694  1  0.96875000  0.34375000  0.53125000  1
  Mg  Mg695  1  0.96875000  0.34375000  0.78125000  1
  Mg  Mg696  1  0.96875000  0.59375000  0.03125000  1
  Mg  Mg697  1  0.96875000  0.59375000  0.28125000  1
  Mg  Mg698  1  0.96875000  0.59375000  0.53125000  1
  Mg  Mg699  1  0.96875000  0.59375000  0.78125000  1
  Mg  Mg700  1  0.96875000  0.84375000  0.03125000  1
  Mg  Mg701  1  0.96875000  0.84375000  0.28125000  1
  Mg  Mg702  1  0.96875000  0.84375000  0.53125000  1
  Mg  Mg703  1  0.96875000  0.84375000  0.78125000  1
  Mg  Mg704  1  0.15625000  0.15625000  0.15625000  1
  Mg  Mg705  1  0.15625000  0.15625000  0.40625000  1
  Mg  Mg706  1  0.15625000  0.15625000  0.65625000  1
  Mg  Mg707  1  0.15625000  0.15625000  0.90625000  1
  Mg  Mg708  1  0.15625000  0.40625000  0.15625000  1
  Mg  Mg709  1  0.15625000  0.40625000  0.40625000  1
  Mg  Mg710  1  0.15625000  0.40625000  0.65625000  1
  Mg  Mg711  1  0.15625000  0.40625000  0.90625000  1
  Mg  Mg712  1  0.15625000  0.65625000  0.15625000  1
  Mg  Mg713  1  0.15625000  0.65625000  0.40625000  1
  Mg  Mg714  1  0.15625000  0.65625000  0.65625000  1
  Mg  Mg715  1  0.15625000  0.65625000  0.90625000  1
  Mg  Mg716  1  0.15625000  0.90625000  0.15625000  1
  Mg  Mg717  1  0.15625000  0.90625000  0.40625000  1
  Mg  Mg718  1  0.15625000  0.90625000  0.65625000  1
  Mg  Mg719  1  0.15625000  0.90625000  0.90625000  1
  Mg  Mg720  1  0.40625000  0.15625000  0.15625000  1
  Mg  Mg721  1  0.40625000  0.15625000  0.40625000  1
  Mg  Mg722  1  0.40625000  0.15625000  0.65625000  1
  Mg  Mg723  1  0.40625000  0.15625000  0.90625000  1
  Mg  Mg724  1  0.40625000  0.40625000  0.15625000  1
  Mg  Mg725  1  0.40625000  0.40625000  0.40625000  1
  Mg  Mg726  1  0.40625000  0.40625000  0.65625000  1
  Mg  Mg727  1  0.40625000  0.40625000  0.90625000  1
  Mg  Mg728  1  0.40625000  0.65625000  0.15625000  1
  Mg  Mg729  1  0.40625000  0.65625000  0.40625000  1
  Mg  Mg730  1  0.40625000  0.65625000  0.65625000  1
  Mg  Mg731  1  0.40625000  0.65625000  0.90625000  1
  Mg  Mg732  1  0.40625000  0.90625000  0.15625000  1
  Mg  Mg733  1  0.40625000  0.90625000  0.40625000  1
  Mg  Mg734  1  0.40625000  0.90625000  0.65625000  1
  Mg  Mg735  1  0.40625000  0.90625000  0.90625000  1
  Mg  Mg736  1  0.65625000  0.15625000  0.15625000  1
  Mg  Mg737  1  0.65625000  0.15625000  0.40625000  1
  Mg  Mg738  1  0.65625000  0.15625000  0.65625000  1
  Mg  Mg739  1  0.65625000  0.15625000  0.90625000  1
  Mg  Mg740  1  0.65625000  0.40625000  0.15625000  1
  Mg  Mg741  1  0.65625000  0.40625000  0.40625000  1
  Mg  Mg742  1  0.65625000  0.40625000  0.65625000  1
  Mg  Mg743  1  0.65625000  0.40625000  0.90625000  1
  Mg  Mg744  1  0.65625000  0.65625000  0.15625000  1
  Mg  Mg745  1  0.65625000  0.65625000  0.40625000  1
  Mg  Mg746  1  0.65625000  0.65625000  0.65625000  1
  Mg  Mg747  1  0.65625000  0.65625000  0.90625000  1
  Mg  Mg748  1  0.65625000  0.90625000  0.15625000  1
  Mg  Mg749  1  0.65625000  0.90625000  0.40625000  1
  Mg  Mg750  1  0.65625000  0.90625000  0.65625000  1
  Mg  Mg751  1  0.65625000  0.90625000  0.90625000  1
  Mg  Mg752  1  0.90625000  0.15625000  0.15625000  1
  Mg  Mg753  1  0.90625000  0.15625000  0.40625000  1
  Mg  Mg754  1  0.90625000  0.15625000  0.65625000  1
  Mg  Mg755  1  0.90625000  0.15625000  0.90625000  1
  Mg  Mg756  1  0.90625000  0.40625000  0.15625000  1
  Mg  Mg757  1  0.90625000  0.40625000  0.40625000  1
  Mg  Mg758  1  0.90625000  0.40625000  0.65625000  1
  Mg  Mg759  1  0.90625000  0.40625000  0.90625000  1
  Mg  Mg760  1  0.90625000  0.65625000  0.15625000  1
  Mg  Mg761  1  0.90625000  0.65625000  0.40625000  1
  Mg  Mg762  1  0.90625000  0.65625000  0.65625000  1
  Mg  Mg763  1  0.90625000  0.65625000  0.90625000  1
  Mg  Mg764  1  0.90625000  0.90625000  0.15625000  1
  Mg  Mg765  1  0.90625000  0.90625000  0.40625000  1
  Mg  Mg766  1  0.90625000  0.90625000  0.65625000  1
  Mg  Mg767  1  0.90625000  0.90625000  0.90625000  1
  Mn  Mn768  1  0.03125000  0.09503400  0.21746600  1
  Mn  Mn769  1  0.03125000  0.09503400  0.46746600  1
  Mn  Mn770  1  0.03125000  0.09503400  0.71746600  1
  Mn  Mn771  1  0.03125000  0.09503400  0.96746600  1
  Mn  Mn772  1  0.03125000  0.34503400  0.21746600  1
  Mn  Mn773  1  0.03125000  0.34503400  0.46746600  1
  Mn  Mn774  1  0.03125000  0.34503400  0.71746600  1
  Mn  Mn775  1  0.03125000  0.34503400  0.96746600  1
  Mn  Mn776  1  0.03125000  0.59503400  0.21746600  1
  Mn  Mn777  1  0.03125000  0.59503400  0.46746600  1
  Mn  Mn778  1  0.03125000  0.59503400  0.71746600  1
  Mn  Mn779  1  0.03125000  0.59503400  0.96746600  1
  Mn  Mn780  1  0.03125000  0.84503400  0.21746600  1
  Mn  Mn781  1  0.03125000  0.84503400  0.46746600  1
  Mn  Mn782  1  0.03125000  0.84503400  0.71746600  1
  Mn  Mn783  1  0.03125000  0.84503400  0.96746600  1
  Mn  Mn784  1  0.28125000  0.09503400  0.21746600  1
  Mn  Mn785  1  0.28125000  0.09503400  0.46746600  1
  Mn  Mn786  1  0.28125000  0.09503400  0.71746600  1
  Mn  Mn787  1  0.28125000  0.09503400  0.96746600  1
  Mn  Mn788  1  0.28125000  0.34503400  0.21746600  1
  Mn  Mn789  1  0.28125000  0.34503400  0.46746600  1
  Mn  Mn790  1  0.28125000  0.34503400  0.71746600  1
  Mn  Mn791  1  0.28125000  0.34503400  0.96746600  1
  Mn  Mn792  1  0.28125000  0.59503400  0.21746600  1
  Mn  Mn793  1  0.28125000  0.59503400  0.46746600  1
  Mn  Mn794  1  0.28125000  0.59503400  0.71746600  1
  Mn  Mn795  1  0.28125000  0.59503400  0.96746600  1
  Mn  Mn796  1  0.28125000  0.84503400  0.21746600  1
  Mn  Mn797  1  0.28125000  0.84503400  0.46746600  1
  Mn  Mn798  1  0.28125000  0.84503400  0.71746600  1
  Mn  Mn799  1  0.28125000  0.84503400  0.96746600  1
  Mn  Mn800  1  0.53125000  0.09503400  0.21746600  1
  Mn  Mn801  1  0.53125000  0.09503400  0.46746600  1
  Mn  Mn802  1  0.53125000  0.09503400  0.71746600  1
  Mn  Mn803  1  0.53125000  0.09503400  0.96746600  1
  Mn  Mn804  1  0.53125000  0.34503400  0.21746600  1
  Mn  Mn805  1  0.53125000  0.34503400  0.46746600  1
  Mn  Mn806  1  0.53125000  0.34503400  0.71746600  1
  Mn  Mn807  1  0.53125000  0.34503400  0.96746600  1
  Mn  Mn808  1  0.53125000  0.59503400  0.21746600  1
  Mn  Mn809  1  0.53125000  0.59503400  0.46746600  1
  Mn  Mn810  1  0.53125000  0.59503400  0.71746600  1
  Mn  Mn811  1  0.53125000  0.59503400  0.96746600  1
  Mn  Mn812  1  0.53125000  0.84503400  0.21746600  1
  Mn  Mn813  1  0.53125000  0.84503400  0.46746600  1
  Mn  Mn814  1  0.53125000  0.84503400  0.71746600  1
  Mn  Mn815  1  0.53125000  0.84503400  0.96746600  1
  Mn  Mn816  1  0.78125000  0.09503400  0.21746600  1
  Mn  Mn817  1  0.78125000  0.09503400  0.46746600  1
  Mn  Mn818  1  0.78125000  0.09503400  0.71746600  1
  Mn  Mn819  1  0.78125000  0.09503400  0.96746600  1
  Mn  Mn820  1  0.78125000  0.34503400  0.21746600  1
  Mn  Mn821  1  0.78125000  0.34503400  0.46746600  1
  Mn  Mn822  1  0.78125000  0.34503400  0.71746600  1
  Mn  Mn823  1  0.78125000  0.34503400  0.96746600  1
  Mn  Mn824  1  0.78125000  0.59503400  0.21746600  1
  Mn  Mn825  1  0.78125000  0.59503400  0.46746600  1
  Mn  Mn826  1  0.78125000  0.59503400  0.71746600  1
  Mn  Mn827  1  0.78125000  0.59503400  0.96746600  1
  Mn  Mn828  1  0.78125000  0.84503400  0.21746600  1
  Mn  Mn829  1  0.78125000  0.84503400  0.46746600  1
  Mn  Mn830  1  0.78125000  0.84503400  0.71746600  1
  Mn  Mn831  1  0.78125000  0.84503400  0.96746600  1
  Mn  Mn832  1  0.09375000  0.15496600  0.09246600  1
  Mn  Mn833  1  0.09375000  0.15496600  0.34246600  1
  Mn  Mn834  1  0.09375000  0.15496600  0.59246600  1
  Mn  Mn835  1  0.09375000  0.15496600  0.84246600  1
  Mn  Mn836  1  0.09375000  0.40496600  0.09246600  1
  Mn  Mn837  1  0.09375000  0.40496600  0.34246600  1
  Mn  Mn838  1  0.09375000  0.40496600  0.59246600  1
  Mn  Mn839  1  0.09375000  0.40496600  0.84246600  1
  Mn  Mn840  1  0.09375000  0.65496600  0.09246600  1
  Mn  Mn841  1  0.09375000  0.65496600  0.34246600  1
  Mn  Mn842  1  0.09375000  0.65496600  0.59246600  1
  Mn  Mn843  1  0.09375000  0.65496600  0.84246600  1
  Mn  Mn844  1  0.09375000  0.90496600  0.09246600  1
  Mn  Mn845  1  0.09375000  0.90496600  0.34246600  1
  Mn  Mn846  1  0.09375000  0.90496600  0.59246600  1
  Mn  Mn847  1  0.09375000  0.90496600  0.84246600  1
  Mn  Mn848  1  0.34375000  0.15496600  0.09246600  1
  Mn  Mn849  1  0.34375000  0.15496600  0.34246600  1
  Mn  Mn850  1  0.34375000  0.15496600  0.59246600  1
  Mn  Mn851  1  0.34375000  0.15496600  0.84246600  1
  Mn  Mn852  1  0.34375000  0.40496600  0.09246600  1
  Mn  Mn853  1  0.34375000  0.40496600  0.34246600  1
  Mn  Mn854  1  0.34375000  0.40496600  0.59246600  1
  Mn  Mn855  1  0.34375000  0.40496600  0.84246600  1
  Mn  Mn856  1  0.34375000  0.65496600  0.09246600  1
  Mn  Mn857  1  0.34375000  0.65496600  0.34246600  1
  Mn  Mn858  1  0.34375000  0.65496600  0.59246600  1
  Mn  Mn859  1  0.34375000  0.65496600  0.84246600  1
  Mn  Mn860  1  0.34375000  0.90496600  0.09246600  1
  Mn  Mn861  1  0.34375000  0.90496600  0.34246600  1
  Mn  Mn862  1  0.34375000  0.90496600  0.59246600  1
  Mn  Mn863  1  0.34375000  0.90496600  0.84246600  1
  Mn  Mn864  1  0.59375000  0.15496600  0.09246600  1
  Mn  Mn865  1  0.59375000  0.15496600  0.34246600  1
  Mn  Mn866  1  0.59375000  0.15496600  0.59246600  1
  Mn  Mn867  1  0.59375000  0.15496600  0.84246600  1
  Mn  Mn868  1  0.59375000  0.40496600  0.09246600  1
  Mn  Mn869  1  0.59375000  0.40496600  0.34246600  1
  Mn  Mn870  1  0.59375000  0.40496600  0.59246600  1
  Mn  Mn871  1  0.59375000  0.40496600  0.84246600  1
  Mn  Mn872  1  0.59375000  0.65496600  0.09246600  1
  Mn  Mn873  1  0.59375000  0.65496600  0.34246600  1
  Mn  Mn874  1  0.59375000  0.65496600  0.59246600  1
  Mn  Mn875  1  0.59375000  0.65496600  0.84246600  1
  Mn  Mn876  1  0.59375000  0.90496600  0.09246600  1
  Mn  Mn877  1  0.59375000  0.90496600  0.34246600  1
  Mn  Mn878  1  0.59375000  0.90496600  0.59246600  1
  Mn  Mn879  1  0.59375000  0.90496600  0.84246600  1
  Mn  Mn880  1  0.84375000  0.15496600  0.09246600  1
  Mn  Mn881  1  0.84375000  0.15496600  0.34246600  1
  Mn  Mn882  1  0.84375000  0.15496600  0.59246600  1
  Mn  Mn883  1  0.84375000  0.15496600  0.84246600  1
  Mn  Mn884  1  0.84375000  0.40496600  0.09246600  1
  Mn  Mn885  1  0.84375000  0.40496600  0.34246600  1
  Mn  Mn886  1  0.84375000  0.40496600  0.59246600  1
  Mn  Mn887  1  0.84375000  0.40496600  0.84246600  1
  Mn  Mn888  1  0.84375000  0.65496600  0.09246600  1
  Mn  Mn889  1  0.84375000  0.65496600  0.34246600  1
  Mn  Mn890  1  0.84375000  0.65496600  0.59246600  1
  Mn  Mn891  1  0.84375000  0.65496600  0.84246600  1
  Mn  Mn892  1  0.84375000  0.90496600  0.09246600  1
  Mn  Mn893  1  0.84375000  0.90496600  0.34246600  1
  Mn  Mn894  1  0.84375000  0.90496600  0.59246600  1
  Mn  Mn895  1  0.84375000  0.90496600  0.84246600  1
  Mn  Mn896  1  0.15753400  0.21875000  0.22003400  1
  Mn  Mn897  1  0.15753400  0.21875000  0.47003400  1
  Mn  Mn898  1  0.15753400  0.21875000  0.72003400  1
  Mn  Mn899  1  0.15753400  0.21875000  0.97003400  1
  Mn  Mn900  1  0.15753400  0.46875000  0.22003400  1
  Mn  Mn901  1  0.15753400  0.46875000  0.47003400  1
  Mn  Mn902  1  0.15753400  0.46875000  0.72003400  1
  Mn  Mn903  1  0.15753400  0.46875000  0.97003400  1
  Mn  Mn904  1  0.15753400  0.71875000  0.22003400  1
  Mn  Mn905  1  0.15753400  0.71875000  0.47003400  1
  Mn  Mn906  1  0.15753400  0.71875000  0.72003400  1
  Mn  Mn907  1  0.15753400  0.71875000  0.97003400  1
  Mn  Mn908  1  0.15753400  0.96875000  0.22003400  1
  Mn  Mn909  1  0.15753400  0.96875000  0.47003400  1
  Mn  Mn910  1  0.15753400  0.96875000  0.72003400  1
  Mn  Mn911  1  0.15753400  0.96875000  0.97003400  1
  Mn  Mn912  1  0.40753400  0.21875000  0.22003400  1
  Mn  Mn913  1  0.40753400  0.21875000  0.47003400  1
  Mn  Mn914  1  0.40753400  0.21875000  0.72003400  1
  Mn  Mn915  1  0.40753400  0.21875000  0.97003400  1
  Mn  Mn916  1  0.40753400  0.46875000  0.22003400  1
  Mn  Mn917  1  0.40753400  0.46875000  0.47003400  1
  Mn  Mn918  1  0.40753400  0.46875000  0.72003400  1
  Mn  Mn919  1  0.40753400  0.46875000  0.97003400  1
  Mn  Mn920  1  0.40753400  0.71875000  0.22003400  1
  Mn  Mn921  1  0.40753400  0.71875000  0.47003400  1
  Mn  Mn922  1  0.40753400  0.71875000  0.72003400  1
  Mn  Mn923  1  0.40753400  0.71875000  0.97003400  1
  Mn  Mn924  1  0.40753400  0.96875000  0.22003400  1
  Mn  Mn925  1  0.40753400  0.96875000  0.47003400  1
  Mn  Mn926  1  0.40753400  0.96875000  0.72003400  1
  Mn  Mn927  1  0.40753400  0.96875000  0.97003400  1
  Mn  Mn928  1  0.65753400  0.21875000  0.22003400  1
  Mn  Mn929  1  0.65753400  0.21875000  0.47003400  1
  Mn  Mn930  1  0.65753400  0.21875000  0.72003400  1
  Mn  Mn931  1  0.65753400  0.21875000  0.97003400  1
  Mn  Mn932  1  0.65753400  0.46875000  0.22003400  1
  Mn  Mn933  1  0.65753400  0.46875000  0.47003400  1
  Mn  Mn934  1  0.65753400  0.46875000  0.72003400  1
  Mn  Mn935  1  0.65753400  0.46875000  0.97003400  1
  Mn  Mn936  1  0.65753400  0.71875000  0.22003400  1
  Mn  Mn937  1  0.65753400  0.71875000  0.47003400  1
  Mn  Mn938  1  0.65753400  0.71875000  0.72003400  1
  Mn  Mn939  1  0.65753400  0.71875000  0.97003400  1
  Mn  Mn940  1  0.65753400  0.96875000  0.22003400  1
  Mn  Mn941  1  0.65753400  0.96875000  0.47003400  1
  Mn  Mn942  1  0.65753400  0.96875000  0.72003400  1
  Mn  Mn943  1  0.65753400  0.96875000  0.97003400  1
  Mn  Mn944  1  0.90753400  0.21875000  0.22003400  1
  Mn  Mn945  1  0.90753400  0.21875000  0.47003400  1
  Mn  Mn946  1  0.90753400  0.21875000  0.72003400  1
  Mn  Mn947  1  0.90753400  0.21875000  0.97003400  1
  Mn  Mn948  1  0.90753400  0.46875000  0.22003400  1
  Mn  Mn949  1  0.90753400  0.46875000  0.47003400  1
  Mn  Mn950  1  0.90753400  0.46875000  0.72003400  1
  Mn  Mn951  1  0.90753400  0.46875000  0.97003400  1
  Mn  Mn952  1  0.90753400  0.71875000  0.22003400  1
  Mn  Mn953  1  0.90753400  0.71875000  0.47003400  1
  Mn  Mn954  1  0.90753400  0.71875000  0.72003400  1
  Mn  Mn955  1  0.90753400  0.71875000  0.97003400  1
  Mn  Mn956  1  0.90753400  0.96875000  0.22003400  1
  Mn  Mn957  1  0.90753400  0.96875000  0.47003400  1
  Mn  Mn958  1  0.90753400  0.96875000  0.72003400  1
  Mn  Mn959  1  0.90753400  0.96875000  0.97003400  1
  Mn  Mn960  1  0.15496600  0.09246600  0.09375000  1
  Mn  Mn961  1  0.15496600  0.09246600  0.34375000  1
  Mn  Mn962  1  0.15496600  0.09246600  0.59375000  1
  Mn  Mn963  1  0.15496600  0.09246600  0.84375000  1
  Mn  Mn964  1  0.15496600  0.34246600  0.09375000  1
  Mn  Mn965  1  0.15496600  0.34246600  0.34375000  1
  Mn  Mn966  1  0.15496600  0.34246600  0.59375000  1
  Mn  Mn967  1  0.15496600  0.34246600  0.84375000  1
  Mn  Mn968  1  0.15496600  0.59246600  0.09375000  1
  Mn  Mn969  1  0.15496600  0.59246600  0.34375000  1
  Mn  Mn970  1  0.15496600  0.59246600  0.59375000  1
  Mn  Mn971  1  0.15496600  0.59246600  0.84375000  1
  Mn  Mn972  1  0.15496600  0.84246600  0.09375000  1
  Mn  Mn973  1  0.15496600  0.84246600  0.34375000  1
  Mn  Mn974  1  0.15496600  0.84246600  0.59375000  1
  Mn  Mn975  1  0.15496600  0.84246600  0.84375000  1
  Mn  Mn976  1  0.40496600  0.09246600  0.09375000  1
  Mn  Mn977  1  0.40496600  0.09246600  0.34375000  1
  Mn  Mn978  1  0.40496600  0.09246600  0.59375000  1
  Mn  Mn979  1  0.40496600  0.09246600  0.84375000  1
  Mn  Mn980  1  0.40496600  0.34246600  0.09375000  1
  Mn  Mn981  1  0.40496600  0.34246600  0.34375000  1
  Mn  Mn982  1  0.40496600  0.34246600  0.59375000  1
  Mn  Mn983  1  0.40496600  0.34246600  0.84375000  1
  Mn  Mn984  1  0.40496600  0.59246600  0.09375000  1
  Mn  Mn985  1  0.40496600  0.59246600  0.34375000  1
  Mn  Mn986  1  0.40496600  0.59246600  0.59375000  1
  Mn  Mn987  1  0.40496600  0.59246600  0.84375000  1
  Mn  Mn988  1  0.40496600  0.84246600  0.09375000  1
  Mn  Mn989  1  0.40496600  0.84246600  0.34375000  1
  Mn  Mn990  1  0.40496600  0.84246600  0.59375000  1
  Mn  Mn991  1  0.40496600  0.84246600  0.84375000  1
  Mn  Mn992  1  0.65496600  0.09246600  0.09375000  1
  Mn  Mn993  1  0.65496600  0.09246600  0.34375000  1
  Mn  Mn994  1  0.65496600  0.09246600  0.59375000  1
  Mn  Mn995  1  0.65496600  0.09246600  0.84375000  1
  Mn  Mn996  1  0.65496600  0.34246600  0.09375000  1
  Mn  Mn997  1  0.65496600  0.34246600  0.34375000  1
  Mn  Mn998  1  0.65496600  0.34246600  0.59375000  1
  Mn  Mn999  1  0.65496600  0.34246600  0.84375000  1
  Mn  Mn1000  1  0.65496600  0.59246600  0.09375000  1
  Mn  Mn1001  1  0.65496600  0.59246600  0.34375000  1
  Mn  Mn1002  1  0.65496600  0.59246600  0.59375000  1
  Mn  Mn1003  1  0.65496600  0.59246600  0.84375000  1
  Mn  Mn1004  1  0.65496600  0.84246600  0.09375000  1
  Mn  Mn1005  1  0.65496600  0.84246600  0.34375000  1
  Mn  Mn1006  1  0.65496600  0.84246600  0.59375000  1
  Mn  Mn1007  1  0.65496600  0.84246600  0.84375000  1
  Mn  Mn1008  1  0.90496600  0.09246600  0.09375000  1
  Mn  Mn1009  1  0.90496600  0.09246600  0.34375000  1
  Mn  Mn1010  1  0.90496600  0.09246600  0.59375000  1
  Mn  Mn1011  1  0.90496600  0.09246600  0.84375000  1
  Mn  Mn1012  1  0.90496600  0.34246600  0.09375000  1
  Mn  Mn1013  1  0.90496600  0.34246600  0.34375000  1
  Mn  Mn1014  1  0.90496600  0.34246600  0.59375000  1
  Mn  Mn1015  1  0.90496600  0.34246600  0.84375000  1
  Mn  Mn1016  1  0.90496600  0.59246600  0.09375000  1
  Mn  Mn1017  1  0.90496600  0.59246600  0.34375000  1
  Mn  Mn1018  1  0.90496600  0.59246600  0.59375000  1
  Mn  Mn1019  1  0.90496600  0.59246600  0.84375000  1
  Mn  Mn1020  1  0.90496600  0.84246600  0.09375000  1
  Mn  Mn1021  1  0.90496600  0.84246600  0.34375000  1
  Mn  Mn1022  1  0.90496600  0.84246600  0.59375000  1
  Mn  Mn1023  1  0.90496600  0.84246600  0.84375000  1
  Mn  Mn1024  1  0.09503400  0.21746600  0.03125000  1
  Mn  Mn1025  1  0.09503400  0.21746600  0.28125000  1
  Mn  Mn1026  1  0.09503400  0.21746600  0.53125000  1
  Mn  Mn1027  1  0.09503400  0.21746600  0.78125000  1
  Mn  Mn1028  1  0.09503400  0.46746600  0.03125000  1
  Mn  Mn1029  1  0.09503400  0.46746600  0.28125000  1
  Mn  Mn1030  1  0.09503400  0.46746600  0.53125000  1
  Mn  Mn1031  1  0.09503400  0.46746600  0.78125000  1
  Mn  Mn1032  1  0.09503400  0.71746600  0.03125000  1
  Mn  Mn1033  1  0.09503400  0.71746600  0.28125000  1
  Mn  Mn1034  1  0.09503400  0.71746600  0.53125000  1
  Mn  Mn1035  1  0.09503400  0.71746600  0.78125000  1
  Mn  Mn1036  1  0.09503400  0.96746600  0.03125000  1
  Mn  Mn1037  1  0.09503400  0.96746600  0.28125000  1
  Mn  Mn1038  1  0.09503400  0.96746600  0.53125000  1
  Mn  Mn1039  1  0.09503400  0.96746600  0.78125000  1
  Mn  Mn1040  1  0.34503400  0.21746600  0.03125000  1
  Mn  Mn1041  1  0.34503400  0.21746600  0.28125000  1
  Mn  Mn1042  1  0.34503400  0.21746600  0.53125000  1
  Mn  Mn1043  1  0.34503400  0.21746600  0.78125000  1
  Mn  Mn1044  1  0.34503400  0.46746600  0.03125000  1
  Mn  Mn1045  1  0.34503400  0.46746600  0.28125000  1
  Mn  Mn1046  1  0.34503400  0.46746600  0.53125000  1
  Mn  Mn1047  1  0.34503400  0.46746600  0.78125000  1
  Mn  Mn1048  1  0.34503400  0.71746600  0.03125000  1
  Mn  Mn1049  1  0.34503400  0.71746600  0.28125000  1
  Mn  Mn1050  1  0.34503400  0.71746600  0.53125000  1
  Mn  Mn1051  1  0.34503400  0.71746600  0.78125000  1
  Mn  Mn1052  1  0.34503400  0.96746600  0.03125000  1
  Mn  Mn1053  1  0.34503400  0.96746600  0.28125000  1
  Mn  Mn1054  1  0.34503400  0.96746600  0.53125000  1
  Mn  Mn1055  1  0.34503400  0.96746600  0.78125000  1
  Mn  Mn1056  1  0.59503400  0.21746600  0.03125000  1
  Mn  Mn1057  1  0.59503400  0.21746600  0.28125000  1
  Mn  Mn1058  1  0.59503400  0.21746600  0.53125000  1
  Mn  Mn1059  1  0.59503400  0.21746600  0.78125000  1
  Mn  Mn1060  1  0.59503400  0.46746600  0.03125000  1
  Mn  Mn1061  1  0.59503400  0.46746600  0.28125000  1
  Mn  Mn1062  1  0.59503400  0.46746600  0.53125000  1
  Mn  Mn1063  1  0.59503400  0.46746600  0.78125000  1
  Mn  Mn1064  1  0.59503400  0.71746600  0.03125000  1
  Mn  Mn1065  1  0.59503400  0.71746600  0.28125000  1
  Mn  Mn1066  1  0.59503400  0.71746600  0.53125000  1
  Mn  Mn1067  1  0.59503400  0.71746600  0.78125000  1
  Mn  Mn1068  1  0.59503400  0.96746600  0.03125000  1
  Mn  Mn1069  1  0.59503400  0.96746600  0.28125000  1
  Mn  Mn1070  1  0.59503400  0.96746600  0.53125000  1
  Mn  Mn1071  1  0.59503400  0.96746600  0.78125000  1
  Mn  Mn1072  1  0.84503400  0.21746600  0.03125000  1
  Mn  Mn1073  1  0.84503400  0.21746600  0.28125000  1
  Mn  Mn1074  1  0.84503400  0.21746600  0.53125000  1
  Mn  Mn1075  1  0.84503400  0.21746600  0.78125000  1
  Mn  Mn1076  1  0.84503400  0.46746600  0.03125000  1
  Mn  Mn1077  1  0.84503400  0.46746600  0.28125000  1
  Mn  Mn1078  1  0.84503400  0.46746600  0.53125000  1
  Mn  Mn1079  1  0.84503400  0.46746600  0.78125000  1
  Mn  Mn1080  1  0.84503400  0.71746600  0.03125000  1
  Mn  Mn1081  1  0.84503400  0.71746600  0.28125000  1
  Mn  Mn1082  1  0.84503400  0.71746600  0.53125000  1
  Mn  Mn1083  1  0.84503400  0.71746600  0.78125000  1
  Mn  Mn1084  1  0.84503400  0.96746600  0.03125000  1
  Mn  Mn1085  1  0.84503400  0.96746600  0.28125000  1
  Mn  Mn1086  1  0.84503400  0.96746600  0.53125000  1
  Mn  Mn1087  1  0.84503400  0.96746600  0.78125000  1
  Mn  Mn1088  1  0.22003400  0.15753400  0.21875000  1
  Mn  Mn1089  1  0.22003400  0.15753400  0.46875000  1
  Mn  Mn1090  1  0.22003400  0.15753400  0.71875000  1
  Mn  Mn1091  1  0.22003400  0.15753400  0.96875000  1
  Mn  Mn1092  1  0.22003400  0.40753400  0.21875000  1
  Mn  Mn1093  1  0.22003400  0.40753400  0.46875000  1
  Mn  Mn1094  1  0.22003400  0.40753400  0.71875000  1
  Mn  Mn1095  1  0.22003400  0.40753400  0.96875000  1
  Mn  Mn1096  1  0.22003400  0.65753400  0.21875000  1
  Mn  Mn1097  1  0.22003400  0.65753400  0.46875000  1
  Mn  Mn1098  1  0.22003400  0.65753400  0.71875000  1
  Mn  Mn1099  1  0.22003400  0.65753400  0.96875000  1
  Mn  Mn1100  1  0.22003400  0.90753400  0.21875000  1
  Mn  Mn1101  1  0.22003400  0.90753400  0.46875000  1
  Mn  Mn1102  1  0.22003400  0.90753400  0.71875000  1
  Mn  Mn1103  1  0.22003400  0.90753400  0.96875000  1
  Mn  Mn1104  1  0.47003400  0.15753400  0.21875000  1
  Mn  Mn1105  1  0.47003400  0.15753400  0.46875000  1
  Mn  Mn1106  1  0.47003400  0.15753400  0.71875000  1
  Mn  Mn1107  1  0.47003400  0.15753400  0.96875000  1
  Mn  Mn1108  1  0.47003400  0.40753400  0.21875000  1
  Mn  Mn1109  1  0.47003400  0.40753400  0.46875000  1
  Mn  Mn1110  1  0.47003400  0.40753400  0.71875000  1
  Mn  Mn1111  1  0.47003400  0.40753400  0.96875000  1
  Mn  Mn1112  1  0.47003400  0.65753400  0.21875000  1
  Mn  Mn1113  1  0.47003400  0.65753400  0.46875000  1
  Mn  Mn1114  1  0.47003400  0.65753400  0.71875000  1
  Mn  Mn1115  1  0.47003400  0.65753400  0.96875000  1
  Mn  Mn1116  1  0.47003400  0.90753400  0.21875000  1
  Mn  Mn1117  1  0.47003400  0.90753400  0.46875000  1
  Mn  Mn1118  1  0.47003400  0.90753400  0.71875000  1
  Mn  Mn1119  1  0.47003400  0.90753400  0.96875000  1
  Mn  Mn1120  1  0.72003400  0.15753400  0.21875000  1
  Mn  Mn1121  1  0.72003400  0.15753400  0.46875000  1
  Mn  Mn1122  1  0.72003400  0.15753400  0.71875000  1
  Mn  Mn1123  1  0.72003400  0.15753400  0.96875000  1
  Mn  Mn1124  1  0.72003400  0.40753400  0.21875000  1
  Mn  Mn1125  1  0.72003400  0.40753400  0.46875000  1
  Mn  Mn1126  1  0.72003400  0.40753400  0.71875000  1
  Mn  Mn1127  1  0.72003400  0.40753400  0.96875000  1
  Mn  Mn1128  1  0.72003400  0.65753400  0.21875000  1
  Mn  Mn1129  1  0.72003400  0.65753400  0.46875000  1
  Mn  Mn1130  1  0.72003400  0.65753400  0.71875000  1
  Mn  Mn1131  1  0.72003400  0.65753400  0.96875000  1
  Mn  Mn1132  1  0.72003400  0.90753400  0.21875000  1
  Mn  Mn1133  1  0.72003400  0.90753400  0.46875000  1
  Mn  Mn1134  1  0.72003400  0.90753400  0.71875000  1
  Mn  Mn1135  1  0.72003400  0.90753400  0.96875000  1
  Mn  Mn1136  1  0.97003400  0.15753400  0.21875000  1
  Mn  Mn1137  1  0.97003400  0.15753400  0.46875000  1
  Mn  Mn1138  1  0.97003400  0.15753400  0.71875000  1
  Mn  Mn1139  1  0.97003400  0.15753400  0.96875000  1
  Mn  Mn1140  1  0.97003400  0.40753400  0.21875000  1
  Mn  Mn1141  1  0.97003400  0.40753400  0.46875000  1
  Mn  Mn1142  1  0.97003400  0.40753400  0.71875000  1
  Mn  Mn1143  1  0.97003400  0.40753400  0.96875000  1
  Mn  Mn1144  1  0.97003400  0.65753400  0.21875000  1
  Mn  Mn1145  1  0.97003400  0.65753400  0.46875000  1
  Mn  Mn1146  1  0.97003400  0.65753400  0.71875000  1
  Mn  Mn1147  1  0.97003400  0.65753400  0.96875000  1
  Mn  Mn1148  1  0.97003400  0.90753400  0.21875000  1
  Mn  Mn1149  1  0.97003400  0.90753400  0.46875000  1
  Mn  Mn1150  1  0.97003400  0.90753400  0.71875000  1
  Mn  Mn1151  1  0.97003400  0.90753400  0.96875000  1
  Mn  Mn1152  1  0.21875000  0.22003400  0.15753400  1
  Mn  Mn1153  1  0.21875000  0.22003400  0.40753400  1
  Mn  Mn1154  1  0.21875000  0.22003400  0.65753400  1
  Mn  Mn1155  1  0.21875000  0.22003400  0.90753400  1
  Mn  Mn1156  1  0.21875000  0.47003400  0.15753400  1
  Mn  Mn1157  1  0.21875000  0.47003400  0.40753400  1
  Mn  Mn1158  1  0.21875000  0.47003400  0.65753400  1
  Mn  Mn1159  1  0.21875000  0.47003400  0.90753400  1
  Mn  Mn1160  1  0.21875000  0.72003400  0.15753400  1
  Mn  Mn1161  1  0.21875000  0.72003400  0.40753400  1
  Mn  Mn1162  1  0.21875000  0.72003400  0.65753400  1
  Mn  Mn1163  1  0.21875000  0.72003400  0.90753400  1
  Mn  Mn1164  1  0.21875000  0.97003400  0.15753400  1
  Mn  Mn1165  1  0.21875000  0.97003400  0.40753400  1
  Mn  Mn1166  1  0.21875000  0.97003400  0.65753400  1
  Mn  Mn1167  1  0.21875000  0.97003400  0.90753400  1
  Mn  Mn1168  1  0.46875000  0.22003400  0.15753400  1
  Mn  Mn1169  1  0.46875000  0.22003400  0.40753400  1
  Mn  Mn1170  1  0.46875000  0.22003400  0.65753400  1
  Mn  Mn1171  1  0.46875000  0.22003400  0.90753400  1
  Mn  Mn1172  1  0.46875000  0.47003400  0.15753400  1
  Mn  Mn1173  1  0.46875000  0.47003400  0.40753400  1
  Mn  Mn1174  1  0.46875000  0.47003400  0.65753400  1
  Mn  Mn1175  1  0.46875000  0.47003400  0.90753400  1
  Mn  Mn1176  1  0.46875000  0.72003400  0.15753400  1
  Mn  Mn1177  1  0.46875000  0.72003400  0.40753400  1
  Mn  Mn1178  1  0.46875000  0.72003400  0.65753400  1
  Mn  Mn1179  1  0.46875000  0.72003400  0.90753400  1
  Mn  Mn1180  1  0.46875000  0.97003400  0.15753400  1
  Mn  Mn1181  1  0.46875000  0.97003400  0.40753400  1
  Mn  Mn1182  1  0.46875000  0.97003400  0.65753400  1
  Mn  Mn1183  1  0.46875000  0.97003400  0.90753400  1
  Mn  Mn1184  1  0.71875000  0.22003400  0.15753400  1
  Mn  Mn1185  1  0.71875000  0.22003400  0.40753400  1
  Mn  Mn1186  1  0.71875000  0.22003400  0.65753400  1
  Mn  Mn1187  1  0.71875000  0.22003400  0.90753400  1
  Mn  Mn1188  1  0.71875000  0.47003400  0.15753400  1
  Mn  Mn1189  1  0.71875000  0.47003400  0.40753400  1
  Mn  Mn1190  1  0.71875000  0.47003400  0.65753400  1
  Mn  Mn1191  1  0.71875000  0.47003400  0.90753400  1
  Mn  Mn1192  1  0.71875000  0.72003400  0.15753400  1
  Mn  Mn1193  1  0.71875000  0.72003400  0.40753400  1
  Mn  Mn1194  1  0.71875000  0.72003400  0.65753400  1
  Mn  Mn1195  1  0.71875000  0.72003400  0.90753400  1
  Mn  Mn1196  1  0.71875000  0.97003400  0.15753400  1
  Mn  Mn1197  1  0.71875000  0.97003400  0.40753400  1
  Mn  Mn1198  1  0.71875000  0.97003400  0.65753400  1
  Mn  Mn1199  1  0.71875000  0.97003400  0.90753400  1
  Mn  Mn1200  1  0.96875000  0.22003400  0.15753400  1
  Mn  Mn1201  1  0.96875000  0.22003400  0.40753400  1
  Mn  Mn1202  1  0.96875000  0.22003400  0.65753400  1
  Mn  Mn1203  1  0.96875000  0.22003400  0.90753400  1
  Mn  Mn1204  1  0.96875000  0.47003400  0.15753400  1
  Mn  Mn1205  1  0.96875000  0.47003400  0.40753400  1
  Mn  Mn1206  1  0.96875000  0.47003400  0.65753400  1
  Mn  Mn1207  1  0.96875000  0.47003400  0.90753400  1
  Mn  Mn1208  1  0.96875000  0.72003400  0.15753400  1
  Mn  Mn1209  1  0.96875000  0.72003400  0.40753400  1
  Mn  Mn1210  1  0.96875000  0.72003400  0.65753400  1
  Mn  Mn1211  1  0.96875000  0.72003400  0.90753400  1
  Mn  Mn1212  1  0.96875000  0.97003400  0.15753400  1
  Mn  Mn1213  1  0.96875000  0.97003400  0.40753400  1
  Mn  Mn1214  1  0.96875000  0.97003400  0.65753400  1
  Mn  Mn1215  1  0.96875000  0.97003400  0.90753400  1
  Mn  Mn1216  1  0.15625000  0.02996600  0.03253400  1
  Mn  Mn1217  1  0.15625000  0.02996600  0.28253400  1
  Mn  Mn1218  1  0.15625000  0.02996600  0.53253400  1
  Mn  Mn1219  1  0.15625000  0.02996600  0.78253400  1
  Mn  Mn1220  1  0.15625000  0.27996600  0.03253400  1
  Mn  Mn1221  1  0.15625000  0.27996600  0.28253400  1
  Mn  Mn1222  1  0.15625000  0.27996600  0.53253400  1
  Mn  Mn1223  1  0.15625000  0.27996600  0.78253400  1
  Mn  Mn1224  1  0.15625000  0.52996600  0.03253400  1
  Mn  Mn1225  1  0.15625000  0.52996600  0.28253400  1
  Mn  Mn1226  1  0.15625000  0.52996600  0.53253400  1
  Mn  Mn1227  1  0.15625000  0.52996600  0.78253400  1
  Mn  Mn1228  1  0.15625000  0.77996600  0.03253400  1
  Mn  Mn1229  1  0.15625000  0.77996600  0.28253400  1
  Mn  Mn1230  1  0.15625000  0.77996600  0.53253400  1
  Mn  Mn1231  1  0.15625000  0.77996600  0.78253400  1
  Mn  Mn1232  1  0.40625000  0.02996600  0.03253400  1
  Mn  Mn1233  1  0.40625000  0.02996600  0.28253400  1
  Mn  Mn1234  1  0.40625000  0.02996600  0.53253400  1
  Mn  Mn1235  1  0.40625000  0.02996600  0.78253400  1
  Mn  Mn1236  1  0.40625000  0.27996600  0.03253400  1
  Mn  Mn1237  1  0.40625000  0.27996600  0.28253400  1
  Mn  Mn1238  1  0.40625000  0.27996600  0.53253400  1
  Mn  Mn1239  1  0.40625000  0.27996600  0.78253400  1
  Mn  Mn1240  1  0.40625000  0.52996600  0.03253400  1
  Mn  Mn1241  1  0.40625000  0.52996600  0.28253400  1
  Mn  Mn1242  1  0.40625000  0.52996600  0.53253400  1
  Mn  Mn1243  1  0.40625000  0.52996600  0.78253400  1
  Mn  Mn1244  1  0.40625000  0.77996600  0.03253400  1
  Mn  Mn1245  1  0.40625000  0.77996600  0.28253400  1
  Mn  Mn1246  1  0.40625000  0.77996600  0.53253400  1
  Mn  Mn1247  1  0.40625000  0.77996600  0.78253400  1
  Mn  Mn1248  1  0.65625000  0.02996600  0.03253400  1
  Mn  Mn1249  1  0.65625000  0.02996600  0.28253400  1
  Mn  Mn1250  1  0.65625000  0.02996600  0.53253400  1
  Mn  Mn1251  1  0.65625000  0.02996600  0.78253400  1
  Mn  Mn1252  1  0.65625000  0.27996600  0.03253400  1
  Mn  Mn1253  1  0.65625000  0.27996600  0.28253400  1
  Mn  Mn1254  1  0.65625000  0.27996600  0.53253400  1
  Mn  Mn1255  1  0.65625000  0.27996600  0.78253400  1
  Mn  Mn1256  1  0.65625000  0.52996600  0.03253400  1
  Mn  Mn1257  1  0.65625000  0.52996600  0.28253400  1
  Mn  Mn1258  1  0.65625000  0.52996600  0.53253400  1
  Mn  Mn1259  1  0.65625000  0.52996600  0.78253400  1
  Mn  Mn1260  1  0.65625000  0.77996600  0.03253400  1
  Mn  Mn1261  1  0.65625000  0.77996600  0.28253400  1
  Mn  Mn1262  1  0.65625000  0.77996600  0.53253400  1
  Mn  Mn1263  1  0.65625000  0.77996600  0.78253400  1
  Mn  Mn1264  1  0.90625000  0.02996600  0.03253400  1
  Mn  Mn1265  1  0.90625000  0.02996600  0.28253400  1
  Mn  Mn1266  1  0.90625000  0.02996600  0.53253400  1
  Mn  Mn1267  1  0.90625000  0.02996600  0.78253400  1
  Mn  Mn1268  1  0.90625000  0.27996600  0.03253400  1
  Mn  Mn1269  1  0.90625000  0.27996600  0.28253400  1
  Mn  Mn1270  1  0.90625000  0.27996600  0.53253400  1
  Mn  Mn1271  1  0.90625000  0.27996600  0.78253400  1
  Mn  Mn1272  1  0.90625000  0.52996600  0.03253400  1
  Mn  Mn1273  1  0.90625000  0.52996600  0.28253400  1
  Mn  Mn1274  1  0.90625000  0.52996600  0.53253400  1
  Mn  Mn1275  1  0.90625000  0.52996600  0.78253400  1
  Mn  Mn1276  1  0.90625000  0.77996600  0.03253400  1
  Mn  Mn1277  1  0.90625000  0.77996600  0.28253400  1
  Mn  Mn1278  1  0.90625000  0.77996600  0.53253400  1
  Mn  Mn1279  1  0.90625000  0.77996600  0.78253400  1
  Mn  Mn1280  1  0.02996600  0.03253400  0.15625000  1
  Mn  Mn1281  1  0.02996600  0.03253400  0.40625000  1
  Mn  Mn1282  1  0.02996600  0.03253400  0.65625000  1
  Mn  Mn1283  1  0.02996600  0.03253400  0.90625000  1
  Mn  Mn1284  1  0.02996600  0.28253400  0.15625000  1
  Mn  Mn1285  1  0.02996600  0.28253400  0.40625000  1
  Mn  Mn1286  1  0.02996600  0.28253400  0.65625000  1
  Mn  Mn1287  1  0.02996600  0.28253400  0.90625000  1
  Mn  Mn1288  1  0.02996600  0.53253400  0.15625000  1
  Mn  Mn1289  1  0.02996600  0.53253400  0.40625000  1
  Mn  Mn1290  1  0.02996600  0.53253400  0.65625000  1
  Mn  Mn1291  1  0.02996600  0.53253400  0.90625000  1
  Mn  Mn1292  1  0.02996600  0.78253400  0.15625000  1
  Mn  Mn1293  1  0.02996600  0.78253400  0.40625000  1
  Mn  Mn1294  1  0.02996600  0.78253400  0.65625000  1
  Mn  Mn1295  1  0.02996600  0.78253400  0.90625000  1
  Mn  Mn1296  1  0.27996600  0.03253400  0.15625000  1
  Mn  Mn1297  1  0.27996600  0.03253400  0.40625000  1
  Mn  Mn1298  1  0.27996600  0.03253400  0.65625000  1
  Mn  Mn1299  1  0.27996600  0.03253400  0.90625000  1
  Mn  Mn1300  1  0.27996600  0.28253400  0.15625000  1
  Mn  Mn1301  1  0.27996600  0.28253400  0.40625000  1
  Mn  Mn1302  1  0.27996600  0.28253400  0.65625000  1
  Mn  Mn1303  1  0.27996600  0.28253400  0.90625000  1
  Mn  Mn1304  1  0.27996600  0.53253400  0.15625000  1
  Mn  Mn1305  1  0.27996600  0.53253400  0.40625000  1
  Mn  Mn1306  1  0.27996600  0.53253400  0.65625000  1
  Mn  Mn1307  1  0.27996600  0.53253400  0.90625000  1
  Mn  Mn1308  1  0.27996600  0.78253400  0.15625000  1
  Mn  Mn1309  1  0.27996600  0.78253400  0.40625000  1
  Mn  Mn1310  1  0.27996600  0.78253400  0.65625000  1
  Mn  Mn1311  1  0.27996600  0.78253400  0.90625000  1
  Mn  Mn1312  1  0.52996600  0.03253400  0.15625000  1
  Mn  Mn1313  1  0.52996600  0.03253400  0.40625000  1
  Mn  Mn1314  1  0.52996600  0.03253400  0.65625000  1
  Mn  Mn1315  1  0.52996600  0.03253400  0.90625000  1
  Mn  Mn1316  1  0.52996600  0.28253400  0.15625000  1
  Mn  Mn1317  1  0.52996600  0.28253400  0.40625000  1
  Mn  Mn1318  1  0.52996600  0.28253400  0.65625000  1
  Mn  Mn1319  1  0.52996600  0.28253400  0.90625000  1
  Mn  Mn1320  1  0.52996600  0.53253400  0.15625000  1
  Mn  Mn1321  1  0.52996600  0.53253400  0.40625000  1
  Mn  Mn1322  1  0.52996600  0.53253400  0.65625000  1
  Mn  Mn1323  1  0.52996600  0.53253400  0.90625000  1
  Mn  Mn1324  1  0.52996600  0.78253400  0.15625000  1
  Mn  Mn1325  1  0.52996600  0.78253400  0.40625000  1
  Mn  Mn1326  1  0.52996600  0.78253400  0.65625000  1
  Mn  Mn1327  1  0.52996600  0.78253400  0.90625000  1
  Mn  Mn1328  1  0.77996600  0.03253400  0.15625000  1
  Mn  Mn1329  1  0.77996600  0.03253400  0.40625000  1
  Mn  Mn1330  1  0.77996600  0.03253400  0.65625000  1
  Mn  Mn1331  1  0.77996600  0.03253400  0.90625000  1
  Mn  Mn1332  1  0.77996600  0.28253400  0.15625000  1
  Mn  Mn1333  1  0.77996600  0.28253400  0.40625000  1
  Mn  Mn1334  1  0.77996600  0.28253400  0.65625000  1
  Mn  Mn1335  1  0.77996600  0.28253400  0.90625000  1
  Mn  Mn1336  1  0.77996600  0.53253400  0.15625000  1
  Mn  Mn1337  1  0.77996600  0.53253400  0.40625000  1
  Mn  Mn1338  1  0.77996600  0.53253400  0.65625000  1
  Mn  Mn1339  1  0.77996600  0.53253400  0.90625000  1
  Mn  Mn1340  1  0.77996600  0.78253400  0.15625000  1
  Mn  Mn1341  1  0.77996600  0.78253400  0.40625000  1
  Mn  Mn1342  1  0.77996600  0.78253400  0.65625000  1
  Mn  Mn1343  1  0.77996600  0.78253400  0.90625000  1
  Mn  Mn1344  1  0.03253400  0.15625000  0.02996600  1
  Mn  Mn1345  1  0.03253400  0.15625000  0.27996600  1
  Mn  Mn1346  1  0.03253400  0.15625000  0.52996600  1
  Mn  Mn1347  1  0.03253400  0.15625000  0.77996600  1
  Mn  Mn1348  1  0.03253400  0.40625000  0.02996600  1
  Mn  Mn1349  1  0.03253400  0.40625000  0.27996600  1
  Mn  Mn1350  1  0.03253400  0.40625000  0.52996600  1
  Mn  Mn1351  1  0.03253400  0.40625000  0.77996600  1
  Mn  Mn1352  1  0.03253400  0.65625000  0.02996600  1
  Mn  Mn1353  1  0.03253400  0.65625000  0.27996600  1
  Mn  Mn1354  1  0.03253400  0.65625000  0.52996600  1
  Mn  Mn1355  1  0.03253400  0.65625000  0.77996600  1
  Mn  Mn1356  1  0.03253400  0.90625000  0.02996600  1
  Mn  Mn1357  1  0.03253400  0.90625000  0.27996600  1
  Mn  Mn1358  1  0.03253400  0.90625000  0.52996600  1
  Mn  Mn1359  1  0.03253400  0.90625000  0.77996600  1
  Mn  Mn1360  1  0.28253400  0.15625000  0.02996600  1
  Mn  Mn1361  1  0.28253400  0.15625000  0.27996600  1
  Mn  Mn1362  1  0.28253400  0.15625000  0.52996600  1
  Mn  Mn1363  1  0.28253400  0.15625000  0.77996600  1
  Mn  Mn1364  1  0.28253400  0.40625000  0.02996600  1
  Mn  Mn1365  1  0.28253400  0.40625000  0.27996600  1
  Mn  Mn1366  1  0.28253400  0.40625000  0.52996600  1
  Mn  Mn1367  1  0.28253400  0.40625000  0.77996600  1
  Mn  Mn1368  1  0.28253400  0.65625000  0.02996600  1
  Mn  Mn1369  1  0.28253400  0.65625000  0.27996600  1
  Mn  Mn1370  1  0.28253400  0.65625000  0.52996600  1
  Mn  Mn1371  1  0.28253400  0.65625000  0.77996600  1
  Mn  Mn1372  1  0.28253400  0.90625000  0.02996600  1
  Mn  Mn1373  1  0.28253400  0.90625000  0.27996600  1
  Mn  Mn1374  1  0.28253400  0.90625000  0.52996600  1
  Mn  Mn1375  1  0.28253400  0.90625000  0.77996600  1
  Mn  Mn1376  1  0.53253400  0.15625000  0.02996600  1
  Mn  Mn1377  1  0.53253400  0.15625000  0.27996600  1
  Mn  Mn1378  1  0.53253400  0.15625000  0.52996600  1
  Mn  Mn1379  1  0.53253400  0.15625000  0.77996600  1
  Mn  Mn1380  1  0.53253400  0.40625000  0.02996600  1
  Mn  Mn1381  1  0.53253400  0.40625000  0.27996600  1
  Mn  Mn1382  1  0.53253400  0.40625000  0.52996600  1
  Mn  Mn1383  1  0.53253400  0.40625000  0.77996600  1
  Mn  Mn1384  1  0.53253400  0.65625000  0.02996600  1
  Mn  Mn1385  1  0.53253400  0.65625000  0.27996600  1
  Mn  Mn1386  1  0.53253400  0.65625000  0.52996600  1
  Mn  Mn1387  1  0.53253400  0.65625000  0.77996600  1
  Mn  Mn1388  1  0.53253400  0.90625000  0.02996600  1
  Mn  Mn1389  1  0.53253400  0.90625000  0.27996600  1
  Mn  Mn1390  1  0.53253400  0.90625000  0.52996600  1
  Mn  Mn1391  1  0.53253400  0.90625000  0.77996600  1
  Mn  Mn1392  1  0.78253400  0.15625000  0.02996600  1
  Mn  Mn1393  1  0.78253400  0.15625000  0.27996600  1
  Mn  Mn1394  1  0.78253400  0.15625000  0.52996600  1
  Mn  Mn1395  1  0.78253400  0.15625000  0.77996600  1
  Mn  Mn1396  1  0.78253400  0.40625000  0.02996600  1
  Mn  Mn1397  1  0.78253400  0.40625000  0.27996600  1
  Mn  Mn1398  1  0.78253400  0.40625000  0.52996600  1
  Mn  Mn1399  1  0.78253400  0.40625000  0.77996600  1
  Mn  Mn1400  1  0.78253400  0.65625000  0.02996600  1
  Mn  Mn1401  1  0.78253400  0.65625000  0.27996600  1
  Mn  Mn1402  1  0.78253400  0.65625000  0.52996600  1
  Mn  Mn1403  1  0.78253400  0.65625000  0.77996600  1
  Mn  Mn1404  1  0.78253400  0.90625000  0.02996600  1
  Mn  Mn1405  1  0.78253400  0.90625000  0.27996600  1
  Mn  Mn1406  1  0.78253400  0.90625000  0.52996600  1
  Mn  Mn1407  1  0.78253400  0.90625000  0.77996600  1
  Mn  Mn1408  1  0.09246600  0.09375000  0.15496600  1
  Mn  Mn1409  1  0.09246600  0.09375000  0.40496600  1
  Mn  Mn1410  1  0.09246600  0.09375000  0.65496600  1
  Mn  Mn1411  1  0.09246600  0.09375000  0.90496600  1
  Mn  Mn1412  1  0.09246600  0.34375000  0.15496600  1
  Mn  Mn1413  1  0.09246600  0.34375000  0.40496600  1
  Mn  Mn1414  1  0.09246600  0.34375000  0.65496600  1
  Mn  Mn1415  1  0.09246600  0.34375000  0.90496600  1
  Mn  Mn1416  1  0.09246600  0.59375000  0.15496600  1
  Mn  Mn1417  1  0.09246600  0.59375000  0.40496600  1
  Mn  Mn1418  1  0.09246600  0.59375000  0.65496600  1
  Mn  Mn1419  1  0.09246600  0.59375000  0.90496600  1
  Mn  Mn1420  1  0.09246600  0.84375000  0.15496600  1
  Mn  Mn1421  1  0.09246600  0.84375000  0.40496600  1
  Mn  Mn1422  1  0.09246600  0.84375000  0.65496600  1
  Mn  Mn1423  1  0.09246600  0.84375000  0.90496600  1
  Mn  Mn1424  1  0.34246600  0.09375000  0.15496600  1
  Mn  Mn1425  1  0.34246600  0.09375000  0.40496600  1
  Mn  Mn1426  1  0.34246600  0.09375000  0.65496600  1
  Mn  Mn1427  1  0.34246600  0.09375000  0.90496600  1
  Mn  Mn1428  1  0.34246600  0.34375000  0.15496600  1
  Mn  Mn1429  1  0.34246600  0.34375000  0.40496600  1
  Mn  Mn1430  1  0.34246600  0.34375000  0.65496600  1
  Mn  Mn1431  1  0.34246600  0.34375000  0.90496600  1
  Mn  Mn1432  1  0.34246600  0.59375000  0.15496600  1
  Mn  Mn1433  1  0.34246600  0.59375000  0.40496600  1
  Mn  Mn1434  1  0.34246600  0.59375000  0.65496600  1
  Mn  Mn1435  1  0.34246600  0.59375000  0.90496600  1
  Mn  Mn1436  1  0.34246600  0.84375000  0.15496600  1
  Mn  Mn1437  1  0.34246600  0.84375000  0.40496600  1
  Mn  Mn1438  1  0.34246600  0.84375000  0.65496600  1
  Mn  Mn1439  1  0.34246600  0.84375000  0.90496600  1
  Mn  Mn1440  1  0.59246600  0.09375000  0.15496600  1
  Mn  Mn1441  1  0.59246600  0.09375000  0.40496600  1
  Mn  Mn1442  1  0.59246600  0.09375000  0.65496600  1
  Mn  Mn1443  1  0.59246600  0.09375000  0.90496600  1
  Mn  Mn1444  1  0.59246600  0.34375000  0.15496600  1
  Mn  Mn1445  1  0.59246600  0.34375000  0.40496600  1
  Mn  Mn1446  1  0.59246600  0.34375000  0.65496600  1
  Mn  Mn1447  1  0.59246600  0.34375000  0.90496600  1
  Mn  Mn1448  1  0.59246600  0.59375000  0.15496600  1
  Mn  Mn1449  1  0.59246600  0.59375000  0.40496600  1
  Mn  Mn1450  1  0.59246600  0.59375000  0.65496600  1
  Mn  Mn1451  1  0.59246600  0.59375000  0.90496600  1
  Mn  Mn1452  1  0.59246600  0.84375000  0.15496600  1
  Mn  Mn1453  1  0.59246600  0.84375000  0.40496600  1
  Mn  Mn1454  1  0.59246600  0.84375000  0.65496600  1
  Mn  Mn1455  1  0.59246600  0.84375000  0.90496600  1
  Mn  Mn1456  1  0.84246600  0.09375000  0.15496600  1
  Mn  Mn1457  1  0.84246600  0.09375000  0.40496600  1
  Mn  Mn1458  1  0.84246600  0.09375000  0.65496600  1
  Mn  Mn1459  1  0.84246600  0.09375000  0.90496600  1
  Mn  Mn1460  1  0.84246600  0.34375000  0.15496600  1
  Mn  Mn1461  1  0.84246600  0.34375000  0.40496600  1
  Mn  Mn1462  1  0.84246600  0.34375000  0.65496600  1
  Mn  Mn1463  1  0.84246600  0.34375000  0.90496600  1
  Mn  Mn1464  1  0.84246600  0.59375000  0.15496600  1
  Mn  Mn1465  1  0.84246600  0.59375000  0.40496600  1
  Mn  Mn1466  1  0.84246600  0.59375000  0.65496600  1
  Mn  Mn1467  1  0.84246600  0.59375000  0.90496600  1
  Mn  Mn1468  1  0.84246600  0.84375000  0.15496600  1
  Mn  Mn1469  1  0.84246600  0.84375000  0.40496600  1
  Mn  Mn1470  1  0.84246600  0.84375000  0.65496600  1
  Mn  Mn1471  1  0.84246600  0.84375000  0.90496600  1
  Mn  Mn1472  1  0.21746600  0.03125000  0.09503400  1
  Mn  Mn1473  1  0.21746600  0.03125000  0.34503400  1
  Mn  Mn1474  1  0.21746600  0.03125000  0.59503400  1
  Mn  Mn1475  1  0.21746600  0.03125000  0.84503400  1
  Mn  Mn1476  1  0.21746600  0.28125000  0.09503400  1
  Mn  Mn1477  1  0.21746600  0.28125000  0.34503400  1
  Mn  Mn1478  1  0.21746600  0.28125000  0.59503400  1
  Mn  Mn1479  1  0.21746600  0.28125000  0.84503400  1
  Mn  Mn1480  1  0.21746600  0.53125000  0.09503400  1
  Mn  Mn1481  1  0.21746600  0.53125000  0.34503400  1
  Mn  Mn1482  1  0.21746600  0.53125000  0.59503400  1
  Mn  Mn1483  1  0.21746600  0.53125000  0.84503400  1
  Mn  Mn1484  1  0.21746600  0.78125000  0.09503400  1
  Mn  Mn1485  1  0.21746600  0.78125000  0.34503400  1
  Mn  Mn1486  1  0.21746600  0.78125000  0.59503400  1
  Mn  Mn1487  1  0.21746600  0.78125000  0.84503400  1
  Mn  Mn1488  1  0.46746600  0.03125000  0.09503400  1
  Mn  Mn1489  1  0.46746600  0.03125000  0.34503400  1
  Mn  Mn1490  1  0.46746600  0.03125000  0.59503400  1
  Mn  Mn1491  1  0.46746600  0.03125000  0.84503400  1
  Mn  Mn1492  1  0.46746600  0.28125000  0.09503400  1
  Mn  Mn1493  1  0.46746600  0.28125000  0.34503400  1
  Mn  Mn1494  1  0.46746600  0.28125000  0.59503400  1
  Mn  Mn1495  1  0.46746600  0.28125000  0.84503400  1
  Mn  Mn1496  1  0.46746600  0.53125000  0.09503400  1
  Mn  Mn1497  1  0.46746600  0.53125000  0.34503400  1
  Mn  Mn1498  1  0.46746600  0.53125000  0.59503400  1
  Mn  Mn1499  1  0.46746600  0.53125000  0.84503400  1
  Mn  Mn1500  1  0.46746600  0.78125000  0.09503400  1
  Mn  Mn1501  1  0.46746600  0.78125000  0.34503400  1
  Mn  Mn1502  1  0.46746600  0.78125000  0.59503400  1
  Mn  Mn1503  1  0.46746600  0.78125000  0.84503400  1
  Mn  Mn1504  1  0.71746600  0.03125000  0.09503400  1
  Mn  Mn1505  1  0.71746600  0.03125000  0.34503400  1
  Mn  Mn1506  1  0.71746600  0.03125000  0.59503400  1
  Mn  Mn1507  1  0.71746600  0.03125000  0.84503400  1
  Mn  Mn1508  1  0.71746600  0.28125000  0.09503400  1
  Mn  Mn1509  1  0.71746600  0.28125000  0.34503400  1
  Mn  Mn1510  1  0.71746600  0.28125000  0.59503400  1
  Mn  Mn1511  1  0.71746600  0.28125000  0.84503400  1
  Mn  Mn1512  1  0.71746600  0.53125000  0.09503400  1
  Mn  Mn1513  1  0.71746600  0.53125000  0.34503400  1
  Mn  Mn1514  1  0.71746600  0.53125000  0.59503400  1
  Mn  Mn1515  1  0.71746600  0.53125000  0.84503400  1
  Mn  Mn1516  1  0.71746600  0.78125000  0.09503400  1
  Mn  Mn1517  1  0.71746600  0.78125000  0.34503400  1
  Mn  Mn1518  1  0.71746600  0.78125000  0.59503400  1
  Mn  Mn1519  1  0.71746600  0.78125000  0.84503400  1
  Mn  Mn1520  1  0.96746600  0.03125000  0.09503400  1
  Mn  Mn1521  1  0.96746600  0.03125000  0.34503400  1
  Mn  Mn1522  1  0.96746600  0.03125000  0.59503400  1
  Mn  Mn1523  1  0.96746600  0.03125000  0.84503400  1
  Mn  Mn1524  1  0.96746600  0.28125000  0.09503400  1
  Mn  Mn1525  1  0.96746600  0.28125000  0.34503400  1
  Mn  Mn1526  1  0.96746600  0.28125000  0.59503400  1
  Mn  Mn1527  1  0.96746600  0.28125000  0.84503400  1
  Mn  Mn1528  1  0.96746600  0.53125000  0.09503400  1
  Mn  Mn1529  1  0.96746600  0.53125000  0.34503400  1
  Mn  Mn1530  1  0.96746600  0.53125000  0.59503400  1
  Mn  Mn1531  1  0.96746600  0.53125000  0.84503400  1
  Mn  Mn1532  1  0.96746600  0.78125000  0.09503400  1
  Mn  Mn1533  1  0.96746600  0.78125000  0.34503400  1
  Mn  Mn1534  1  0.96746600  0.78125000  0.59503400  1
  Mn  Mn1535  1  0.96746600  0.78125000  0.84503400  1
  O  O1536  1  0.03124100  0.09816600  0.02480275  1
  O  O1537  1  0.03124100  0.09816600  0.27480275  1
  O  O1538  1  0.03124100  0.09816600  0.52480275  1
  O  O1539  1  0.03124100  0.09816600  0.77480275  1
  O  O1540  1  0.03124100  0.34816600  0.02480275  1
  O  O1541  1  0.03124100  0.34816600  0.27480275  1
  O  O1542  1  0.03124100  0.34816600  0.52480275  1
  O  O1543  1  0.03124100  0.34816600  0.77480275  1
  O  O1544  1  0.03124100  0.59816600  0.02480275  1
  O  O1545  1  0.03124100  0.59816600  0.27480275  1
  O  O1546  1  0.03124100  0.59816600  0.52480275  1
  O  O1547  1  0.03124100  0.59816600  0.77480275  1
  O  O1548  1  0.03124100  0.84816600  0.02480275  1
  O  O1549  1  0.03124100  0.84816600  0.27480275  1
  O  O1550  1  0.03124100  0.84816600  0.52480275  1
  O  O1551  1  0.03124100  0.84816600  0.77480275  1
  O  O1552  1  0.28124100  0.09816600  0.02480275  1
  O  O1553  1  0.28124100  0.09816600  0.27480275  1
  O  O1554  1  0.28124100  0.09816600  0.52480275  1
  O  O1555  1  0.28124100  0.09816600  0.77480275  1
  O  O1556  1  0.28124100  0.34816600  0.02480275  1
  O  O1557  1  0.28124100  0.34816600  0.27480275  1
  O  O1558  1  0.28124100  0.34816600  0.52480275  1
  O  O1559  1  0.28124100  0.34816600  0.77480275  1
  O  O1560  1  0.28124100  0.59816600  0.02480275  1
  O  O1561  1  0.28124100  0.59816600  0.27480275  1
  O  O1562  1  0.28124100  0.59816600  0.52480275  1
  O  O1563  1  0.28124100  0.59816600  0.77480275  1
  O  O1564  1  0.28124100  0.84816600  0.02480275  1
  O  O1565  1  0.28124100  0.84816600  0.27480275  1
  O  O1566  1  0.28124100  0.84816600  0.52480275  1
  O  O1567  1  0.28124100  0.84816600  0.77480275  1
  O  O1568  1  0.53124100  0.09816600  0.02480275  1
  O  O1569  1  0.53124100  0.09816600  0.27480275  1
  O  O1570  1  0.53124100  0.09816600  0.52480275  1
  O  O1571  1  0.53124100  0.09816600  0.77480275  1
  O  O1572  1  0.53124100  0.34816600  0.02480275  1
  O  O1573  1  0.53124100  0.34816600  0.27480275  1
  O  O1574  1  0.53124100  0.34816600  0.52480275  1
  O  O1575  1  0.53124100  0.34816600  0.77480275  1
  O  O1576  1  0.53124100  0.59816600  0.02480275  1
  O  O1577  1  0.53124100  0.59816600  0.27480275  1
  O  O1578  1  0.53124100  0.59816600  0.52480275  1
  O  O1579  1  0.53124100  0.59816600  0.77480275  1
  O  O1580  1  0.53124100  0.84816600  0.02480275  1
  O  O1581  1  0.53124100  0.84816600  0.27480275  1
  O  O1582  1  0.53124100  0.84816600  0.52480275  1
  O  O1583  1  0.53124100  0.84816600  0.77480275  1
  O  O1584  1  0.78124100  0.09816600  0.02480275  1
  O  O1585  1  0.78124100  0.09816600  0.27480275  1
  O  O1586  1  0.78124100  0.09816600  0.52480275  1
  O  O1587  1  0.78124100  0.09816600  0.77480275  1
  O  O1588  1  0.78124100  0.34816600  0.02480275  1
  O  O1589  1  0.78124100  0.34816600  0.27480275  1
  O  O1590  1  0.78124100  0.34816600  0.52480275  1
  O  O1591  1  0.78124100  0.34816600  0.77480275  1
  O  O1592  1  0.78124100  0.59816600  0.02480275  1
  O  O1593  1  0.78124100  0.59816600  0.27480275  1
  O  O1594  1  0.78124100  0.59816600  0.52480275  1
  O  O1595  1  0.78124100  0.59816600  0.77480275  1
  O  O1596  1  0.78124100  0.84816600  0.02480275  1
  O  O1597  1  0.78124100  0.84816600  0.27480275  1
  O  O1598  1  0.78124100  0.84816600  0.52480275  1
  O  O1599  1  0.78124100  0.84816600  0.77480275  1
  O  O1600  1  0.15183400  0.14980275  0.09375900  1
  O  O1601  1  0.15183400  0.14980275  0.34375900  1
  O  O1602  1  0.15183400  0.14980275  0.59375900  1
  O  O1603  1  0.15183400  0.14980275  0.84375900  1
  O  O1604  1  0.15183400  0.39980275  0.09375900  1
  O  O1605  1  0.15183400  0.39980275  0.34375900  1
  O  O1606  1  0.15183400  0.39980275  0.59375900  1
  O  O1607  1  0.15183400  0.39980275  0.84375900  1
  O  O1608  1  0.15183400  0.64980275  0.09375900  1
  O  O1609  1  0.15183400  0.64980275  0.34375900  1
  O  O1610  1  0.15183400  0.64980275  0.59375900  1
  O  O1611  1  0.15183400  0.64980275  0.84375900  1
  O  O1612  1  0.15183400  0.89980275  0.09375900  1
  O  O1613  1  0.15183400  0.89980275  0.34375900  1
  O  O1614  1  0.15183400  0.89980275  0.59375900  1
  O  O1615  1  0.15183400  0.89980275  0.84375900  1
  O  O1616  1  0.40183400  0.14980275  0.09375900  1
  O  O1617  1  0.40183400  0.14980275  0.34375900  1
  O  O1618  1  0.40183400  0.14980275  0.59375900  1
  O  O1619  1  0.40183400  0.14980275  0.84375900  1
  O  O1620  1  0.40183400  0.39980275  0.09375900  1
  O  O1621  1  0.40183400  0.39980275  0.34375900  1
  O  O1622  1  0.40183400  0.39980275  0.59375900  1
  O  O1623  1  0.40183400  0.39980275  0.84375900  1
  O  O1624  1  0.40183400  0.64980275  0.09375900  1
  O  O1625  1  0.40183400  0.64980275  0.34375900  1
  O  O1626  1  0.40183400  0.64980275  0.59375900  1
  O  O1627  1  0.40183400  0.64980275  0.84375900  1
  O  O1628  1  0.40183400  0.89980275  0.09375900  1
  O  O1629  1  0.40183400  0.89980275  0.34375900  1
  O  O1630  1  0.40183400  0.89980275  0.59375900  1
  O  O1631  1  0.40183400  0.89980275  0.84375900  1
  O  O1632  1  0.65183400  0.14980275  0.09375900  1
  O  O1633  1  0.65183400  0.14980275  0.34375900  1
  O  O1634  1  0.65183400  0.14980275  0.59375900  1
  O  O1635  1  0.65183400  0.14980275  0.84375900  1
  O  O1636  1  0.65183400  0.39980275  0.09375900  1
  O  O1637  1  0.65183400  0.39980275  0.34375900  1
  O  O1638  1  0.65183400  0.39980275  0.59375900  1
  O  O1639  1  0.65183400  0.39980275  0.84375900  1
  O  O1640  1  0.65183400  0.64980275  0.09375900  1
  O  O1641  1  0.65183400  0.64980275  0.34375900  1
  O  O1642  1  0.65183400  0.64980275  0.59375900  1
  O  O1643  1  0.65183400  0.64980275  0.84375900  1
  O  O1644  1  0.65183400  0.89980275  0.09375900  1
  O  O1645  1  0.65183400  0.89980275  0.34375900  1
  O  O1646  1  0.65183400  0.89980275  0.59375900  1
  O  O1647  1  0.65183400  0.89980275  0.84375900  1
  O  O1648  1  0.90183400  0.14980275  0.09375900  1
  O  O1649  1  0.90183400  0.14980275  0.34375900  1
  O  O1650  1  0.90183400  0.14980275  0.59375900  1
  O  O1651  1  0.90183400  0.14980275  0.84375900  1
  O  O1652  1  0.90183400  0.39980275  0.09375900  1
  O  O1653  1  0.90183400  0.39980275  0.34375900  1
  O  O1654  1  0.90183400  0.39980275  0.59375900  1
  O  O1655  1  0.90183400  0.39980275  0.84375900  1
  O  O1656  1  0.90183400  0.64980275  0.09375900  1
  O  O1657  1  0.90183400  0.64980275  0.34375900  1
  O  O1658  1  0.90183400  0.64980275  0.59375900  1
  O  O1659  1  0.90183400  0.64980275  0.84375900  1
  O  O1660  1  0.90183400  0.89980275  0.09375900  1
  O  O1661  1  0.90183400  0.89980275  0.34375900  1
  O  O1662  1  0.90183400  0.89980275  0.59375900  1
  O  O1663  1  0.90183400  0.89980275  0.84375900  1
  O  O1664  1  0.09816600  0.02480275  0.03124100  1
  O  O1665  1  0.09816600  0.02480275  0.28124100  1
  O  O1666  1  0.09816600  0.02480275  0.53124100  1
  O  O1667  1  0.09816600  0.02480275  0.78124100  1
  O  O1668  1  0.09816600  0.27480275  0.03124100  1
  O  O1669  1  0.09816600  0.27480275  0.28124100  1
  O  O1670  1  0.09816600  0.27480275  0.53124100  1
  O  O1671  1  0.09816600  0.27480275  0.78124100  1
  O  O1672  1  0.09816600  0.52480275  0.03124100  1
  O  O1673  1  0.09816600  0.52480275  0.28124100  1
  O  O1674  1  0.09816600  0.52480275  0.53124100  1
  O  O1675  1  0.09816600  0.52480275  0.78124100  1
  O  O1676  1  0.09816600  0.77480275  0.03124100  1
  O  O1677  1  0.09816600  0.77480275  0.28124100  1
  O  O1678  1  0.09816600  0.77480275  0.53124100  1
  O  O1679  1  0.09816600  0.77480275  0.78124100  1
  O  O1680  1  0.34816600  0.02480275  0.03124100  1
  O  O1681  1  0.34816600  0.02480275  0.28124100  1
  O  O1682  1  0.34816600  0.02480275  0.53124100  1
  O  O1683  1  0.34816600  0.02480275  0.78124100  1
  O  O1684  1  0.34816600  0.27480275  0.03124100  1
  O  O1685  1  0.34816600  0.27480275  0.28124100  1
  O  O1686  1  0.34816600  0.27480275  0.53124100  1
  O  O1687  1  0.34816600  0.27480275  0.78124100  1
  O  O1688  1  0.34816600  0.52480275  0.03124100  1
  O  O1689  1  0.34816600  0.52480275  0.28124100  1
  O  O1690  1  0.34816600  0.52480275  0.53124100  1
  O  O1691  1  0.34816600  0.52480275  0.78124100  1
  O  O1692  1  0.34816600  0.77480275  0.03124100  1
  O  O1693  1  0.34816600  0.77480275  0.28124100  1
  O  O1694  1  0.34816600  0.77480275  0.53124100  1
  O  O1695  1  0.34816600  0.77480275  0.78124100  1
  O  O1696  1  0.59816600  0.02480275  0.03124100  1
  O  O1697  1  0.59816600  0.02480275  0.28124100  1
  O  O1698  1  0.59816600  0.02480275  0.53124100  1
  O  O1699  1  0.59816600  0.02480275  0.78124100  1
  O  O1700  1  0.59816600  0.27480275  0.03124100  1
  O  O1701  1  0.59816600  0.27480275  0.28124100  1
  O  O1702  1  0.59816600  0.27480275  0.53124100  1
  O  O1703  1  0.59816600  0.27480275  0.78124100  1
  O  O1704  1  0.59816600  0.52480275  0.03124100  1
  O  O1705  1  0.59816600  0.52480275  0.28124100  1
  O  O1706  1  0.59816600  0.52480275  0.53124100  1
  O  O1707  1  0.59816600  0.52480275  0.78124100  1
  O  O1708  1  0.59816600  0.77480275  0.03124100  1
  O  O1709  1  0.59816600  0.77480275  0.28124100  1
  O  O1710  1  0.59816600  0.77480275  0.53124100  1
  O  O1711  1  0.59816600  0.77480275  0.78124100  1
  O  O1712  1  0.84816600  0.02480275  0.03124100  1
  O  O1713  1  0.84816600  0.02480275  0.28124100  1
  O  O1714  1  0.84816600  0.02480275  0.53124100  1
  O  O1715  1  0.84816600  0.02480275  0.78124100  1
  O  O1716  1  0.84816600  0.27480275  0.03124100  1
  O  O1717  1  0.84816600  0.27480275  0.28124100  1
  O  O1718  1  0.84816600  0.27480275  0.53124100  1
  O  O1719  1  0.84816600  0.27480275  0.78124100  1
  O  O1720  1  0.84816600  0.52480275  0.03124100  1
  O  O1721  1  0.84816600  0.52480275  0.28124100  1
  O  O1722  1  0.84816600  0.52480275  0.53124100  1
  O  O1723  1  0.84816600  0.52480275  0.78124100  1
  O  O1724  1  0.84816600  0.77480275  0.03124100  1
  O  O1725  1  0.84816600  0.77480275  0.28124100  1
  O  O1726  1  0.84816600  0.77480275  0.53124100  1
  O  O1727  1  0.84816600  0.77480275  0.78124100  1
  O  O1728  1  0.15624100  0.02683400  0.22519725  1
  O  O1729  1  0.15624100  0.02683400  0.47519725  1
  O  O1730  1  0.15624100  0.02683400  0.72519725  1
  O  O1731  1  0.15624100  0.02683400  0.97519725  1
  O  O1732  1  0.15624100  0.27683400  0.22519725  1
  O  O1733  1  0.15624100  0.27683400  0.47519725  1
  O  O1734  1  0.15624100  0.27683400  0.72519725  1
  O  O1735  1  0.15624100  0.27683400  0.97519725  1
  O  O1736  1  0.15624100  0.52683400  0.22519725  1
  O  O1737  1  0.15624100  0.52683400  0.47519725  1
  O  O1738  1  0.15624100  0.52683400  0.72519725  1
  O  O1739  1  0.15624100  0.52683400  0.97519725  1
  O  O1740  1  0.15624100  0.77683400  0.22519725  1
  O  O1741  1  0.15624100  0.77683400  0.47519725  1
  O  O1742  1  0.15624100  0.77683400  0.72519725  1
  O  O1743  1  0.15624100  0.77683400  0.97519725  1
  O  O1744  1  0.40624100  0.02683400  0.22519725  1
  O  O1745  1  0.40624100  0.02683400  0.47519725  1
  O  O1746  1  0.40624100  0.02683400  0.72519725  1
  O  O1747  1  0.40624100  0.02683400  0.97519725  1
  O  O1748  1  0.40624100  0.27683400  0.22519725  1
  O  O1749  1  0.40624100  0.27683400  0.47519725  1
  O  O1750  1  0.40624100  0.27683400  0.72519725  1
  O  O1751  1  0.40624100  0.27683400  0.97519725  1
  O  O1752  1  0.40624100  0.52683400  0.22519725  1
  O  O1753  1  0.40624100  0.52683400  0.47519725  1
  O  O1754  1  0.40624100  0.52683400  0.72519725  1
  O  O1755  1  0.40624100  0.52683400  0.97519725  1
  O  O1756  1  0.40624100  0.77683400  0.22519725  1
  O  O1757  1  0.40624100  0.77683400  0.47519725  1
  O  O1758  1  0.40624100  0.77683400  0.72519725  1
  O  O1759  1  0.40624100  0.77683400  0.97519725  1
  O  O1760  1  0.65624100  0.02683400  0.22519725  1
  O  O1761  1  0.65624100  0.02683400  0.47519725  1
  O  O1762  1  0.65624100  0.02683400  0.72519725  1
  O  O1763  1  0.65624100  0.02683400  0.97519725  1
  O  O1764  1  0.65624100  0.27683400  0.22519725  1
  O  O1765  1  0.65624100  0.27683400  0.47519725  1
  O  O1766  1  0.65624100  0.27683400  0.72519725  1
  O  O1767  1  0.65624100  0.27683400  0.97519725  1
  O  O1768  1  0.65624100  0.52683400  0.22519725  1
  O  O1769  1  0.65624100  0.52683400  0.47519725  1
  O  O1770  1  0.65624100  0.52683400  0.72519725  1
  O  O1771  1  0.65624100  0.52683400  0.97519725  1
  O  O1772  1  0.65624100  0.77683400  0.22519725  1
  O  O1773  1  0.65624100  0.77683400  0.47519725  1
  O  O1774  1  0.65624100  0.77683400  0.72519725  1
  O  O1775  1  0.65624100  0.77683400  0.97519725  1
  O  O1776  1  0.90624100  0.02683400  0.22519725  1
  O  O1777  1  0.90624100  0.02683400  0.47519725  1
  O  O1778  1  0.90624100  0.02683400  0.72519725  1
  O  O1779  1  0.90624100  0.02683400  0.97519725  1
  O  O1780  1  0.90624100  0.27683400  0.22519725  1
  O  O1781  1  0.90624100  0.27683400  0.47519725  1
  O  O1782  1  0.90624100  0.27683400  0.72519725  1
  O  O1783  1  0.90624100  0.27683400  0.97519725  1
  O  O1784  1  0.90624100  0.52683400  0.22519725  1
  O  O1785  1  0.90624100  0.52683400  0.47519725  1
  O  O1786  1  0.90624100  0.52683400  0.72519725  1
  O  O1787  1  0.90624100  0.52683400  0.97519725  1
  O  O1788  1  0.90624100  0.77683400  0.22519725  1
  O  O1789  1  0.90624100  0.77683400  0.47519725  1
  O  O1790  1  0.90624100  0.77683400  0.72519725  1
  O  O1791  1  0.90624100  0.77683400  0.97519725  1
  O  O1792  1  0.02480275  0.03124100  0.09816600  1
  O  O1793  1  0.02480275  0.03124100  0.34816600  1
  O  O1794  1  0.02480275  0.03124100  0.59816600  1
  O  O1795  1  0.02480275  0.03124100  0.84816600  1
  O  O1796  1  0.02480275  0.28124100  0.09816600  1
  O  O1797  1  0.02480275  0.28124100  0.34816600  1
  O  O1798  1  0.02480275  0.28124100  0.59816600  1
  O  O1799  1  0.02480275  0.28124100  0.84816600  1
  O  O1800  1  0.02480275  0.53124100  0.09816600  1
  O  O1801  1  0.02480275  0.53124100  0.34816600  1
  O  O1802  1  0.02480275  0.53124100  0.59816600  1
  O  O1803  1  0.02480275  0.53124100  0.84816600  1
  O  O1804  1  0.02480275  0.78124100  0.09816600  1
  O  O1805  1  0.02480275  0.78124100  0.34816600  1
  O  O1806  1  0.02480275  0.78124100  0.59816600  1
  O  O1807  1  0.02480275  0.78124100  0.84816600  1
  O  O1808  1  0.27480275  0.03124100  0.09816600  1
  O  O1809  1  0.27480275  0.03124100  0.34816600  1
  O  O1810  1  0.27480275  0.03124100  0.59816600  1
  O  O1811  1  0.27480275  0.03124100  0.84816600  1
  O  O1812  1  0.27480275  0.28124100  0.09816600  1
  O  O1813  1  0.27480275  0.28124100  0.34816600  1
  O  O1814  1  0.27480275  0.28124100  0.59816600  1
  O  O1815  1  0.27480275  0.28124100  0.84816600  1
  O  O1816  1  0.27480275  0.53124100  0.09816600  1
  O  O1817  1  0.27480275  0.53124100  0.34816600  1
  O  O1818  1  0.27480275  0.53124100  0.59816600  1
  O  O1819  1  0.27480275  0.53124100  0.84816600  1
  O  O1820  1  0.27480275  0.78124100  0.09816600  1
  O  O1821  1  0.27480275  0.78124100  0.34816600  1
  O  O1822  1  0.27480275  0.78124100  0.59816600  1
  O  O1823  1  0.27480275  0.78124100  0.84816600  1
  O  O1824  1  0.52480275  0.03124100  0.09816600  1
  O  O1825  1  0.52480275  0.03124100  0.34816600  1
  O  O1826  1  0.52480275  0.03124100  0.59816600  1
  O  O1827  1  0.52480275  0.03124100  0.84816600  1
  O  O1828  1  0.52480275  0.28124100  0.09816600  1
  O  O1829  1  0.52480275  0.28124100  0.34816600  1
  O  O1830  1  0.52480275  0.28124100  0.59816600  1
  O  O1831  1  0.52480275  0.28124100  0.84816600  1
  O  O1832  1  0.52480275  0.53124100  0.09816600  1
  O  O1833  1  0.52480275  0.53124100  0.34816600  1
  O  O1834  1  0.52480275  0.53124100  0.59816600  1
  O  O1835  1  0.52480275  0.53124100  0.84816600  1
  O  O1836  1  0.52480275  0.78124100  0.09816600  1
  O  O1837  1  0.52480275  0.78124100  0.34816600  1
  O  O1838  1  0.52480275  0.78124100  0.59816600  1
  O  O1839  1  0.52480275  0.78124100  0.84816600  1
  O  O1840  1  0.77480275  0.03124100  0.09816600  1
  O  O1841  1  0.77480275  0.03124100  0.34816600  1
  O  O1842  1  0.77480275  0.03124100  0.59816600  1
  O  O1843  1  0.77480275  0.03124100  0.84816600  1
  O  O1844  1  0.77480275  0.28124100  0.09816600  1
  O  O1845  1  0.77480275  0.28124100  0.34816600  1
  O  O1846  1  0.77480275  0.28124100  0.59816600  1
  O  O1847  1  0.77480275  0.28124100  0.84816600  1
  O  O1848  1  0.77480275  0.53124100  0.09816600  1
  O  O1849  1  0.77480275  0.53124100  0.34816600  1
  O  O1850  1  0.77480275  0.53124100  0.59816600  1
  O  O1851  1  0.77480275  0.53124100  0.84816600  1
  O  O1852  1  0.77480275  0.78124100  0.09816600  1
  O  O1853  1  0.77480275  0.78124100  0.34816600  1
  O  O1854  1  0.77480275  0.78124100  0.59816600  1
  O  O1855  1  0.77480275  0.78124100  0.84816600  1
  O  O1856  1  0.09141150  0.15858850  0.03358850  1
  O  O1857  1  0.09141150  0.15858850  0.28358850  1
  O  O1858  1  0.09141150  0.15858850  0.53358850  1
  O  O1859  1  0.09141150  0.15858850  0.78358850  1
  O  O1860  1  0.09141150  0.40858850  0.03358850  1
  O  O1861  1  0.09141150  0.40858850  0.28358850  1
  O  O1862  1  0.09141150  0.40858850  0.53358850  1
  O  O1863  1  0.09141150  0.40858850  0.78358850  1
  O  O1864  1  0.09141150  0.65858850  0.03358850  1
  O  O1865  1  0.09141150  0.65858850  0.28358850  1
  O  O1866  1  0.09141150  0.65858850  0.53358850  1
  O  O1867  1  0.09141150  0.65858850  0.78358850  1
  O  O1868  1  0.09141150  0.90858850  0.03358850  1
  O  O1869  1  0.09141150  0.90858850  0.28358850  1
  O  O1870  1  0.09141150  0.90858850  0.53358850  1
  O  O1871  1  0.09141150  0.90858850  0.78358850  1
  O  O1872  1  0.34141150  0.15858850  0.03358850  1
  O  O1873  1  0.34141150  0.15858850  0.28358850  1
  O  O1874  1  0.34141150  0.15858850  0.53358850  1
  O  O1875  1  0.34141150  0.15858850  0.78358850  1
  O  O1876  1  0.34141150  0.40858850  0.03358850  1
  O  O1877  1  0.34141150  0.40858850  0.28358850  1
  O  O1878  1  0.34141150  0.40858850  0.53358850  1
  O  O1879  1  0.34141150  0.40858850  0.78358850  1
  O  O1880  1  0.34141150  0.65858850  0.03358850  1
  O  O1881  1  0.34141150  0.65858850  0.28358850  1
  O  O1882  1  0.34141150  0.65858850  0.53358850  1
  O  O1883  1  0.34141150  0.65858850  0.78358850  1
  O  O1884  1  0.34141150  0.90858850  0.03358850  1
  O  O1885  1  0.34141150  0.90858850  0.28358850  1
  O  O1886  1  0.34141150  0.90858850  0.53358850  1
  O  O1887  1  0.34141150  0.90858850  0.78358850  1
  O  O1888  1  0.59141150  0.15858850  0.03358850  1
  O  O1889  1  0.59141150  0.15858850  0.28358850  1
  O  O1890  1  0.59141150  0.15858850  0.53358850  1
  O  O1891  1  0.59141150  0.15858850  0.78358850  1
  O  O1892  1  0.59141150  0.40858850  0.03358850  1
  O  O1893  1  0.59141150  0.40858850  0.28358850  1
  O  O1894  1  0.59141150  0.40858850  0.53358850  1
  O  O1895  1  0.59141150  0.40858850  0.78358850  1
  O  O1896  1  0.59141150  0.65858850  0.03358850  1
  O  O1897  1  0.59141150  0.65858850  0.28358850  1
  O  O1898  1  0.59141150  0.65858850  0.53358850  1
  O  O1899  1  0.59141150  0.65858850  0.78358850  1
  O  O1900  1  0.59141150  0.90858850  0.03358850  1
  O  O1901  1  0.59141150  0.90858850  0.28358850  1
  O  O1902  1  0.59141150  0.90858850  0.53358850  1
  O  O1903  1  0.59141150  0.90858850  0.78358850  1
  O  O1904  1  0.84141150  0.15858850  0.03358850  1
  O  O1905  1  0.84141150  0.15858850  0.28358850  1
  O  O1906  1  0.84141150  0.15858850  0.53358850  1
  O  O1907  1  0.84141150  0.15858850  0.78358850  1
  O  O1908  1  0.84141150  0.40858850  0.03358850  1
  O  O1909  1  0.84141150  0.40858850  0.28358850  1
  O  O1910  1  0.84141150  0.40858850  0.53358850  1
  O  O1911  1  0.84141150  0.40858850  0.78358850  1
  O  O1912  1  0.84141150  0.65858850  0.03358850  1
  O  O1913  1  0.84141150  0.65858850  0.28358850  1
  O  O1914  1  0.84141150  0.65858850  0.53358850  1
  O  O1915  1  0.84141150  0.65858850  0.78358850  1
  O  O1916  1  0.84141150  0.90858850  0.03358850  1
  O  O1917  1  0.84141150  0.90858850  0.28358850  1
  O  O1918  1  0.84141150  0.90858850  0.53358850  1
  O  O1919  1  0.84141150  0.90858850  0.78358850  1
  O  O1920  1  0.03769725  0.21433400  0.03125900  1
  O  O1921  1  0.03769725  0.21433400  0.28125900  1
  O  O1922  1  0.03769725  0.21433400  0.53125900  1
  O  O1923  1  0.03769725  0.21433400  0.78125900  1
  O  O1924  1  0.03769725  0.46433400  0.03125900  1
  O  O1925  1  0.03769725  0.46433400  0.28125900  1
  O  O1926  1  0.03769725  0.46433400  0.53125900  1
  O  O1927  1  0.03769725  0.46433400  0.78125900  1
  O  O1928  1  0.03769725  0.71433400  0.03125900  1
  O  O1929  1  0.03769725  0.71433400  0.28125900  1
  O  O1930  1  0.03769725  0.71433400  0.53125900  1
  O  O1931  1  0.03769725  0.71433400  0.78125900  1
  O  O1932  1  0.03769725  0.96433400  0.03125900  1
  O  O1933  1  0.03769725  0.96433400  0.28125900  1
  O  O1934  1  0.03769725  0.96433400  0.53125900  1
  O  O1935  1  0.03769725  0.96433400  0.78125900  1
  O  O1936  1  0.28769725  0.21433400  0.03125900  1
  O  O1937  1  0.28769725  0.21433400  0.28125900  1
  O  O1938  1  0.28769725  0.21433400  0.53125900  1
  O  O1939  1  0.28769725  0.21433400  0.78125900  1
  O  O1940  1  0.28769725  0.46433400  0.03125900  1
  O  O1941  1  0.28769725  0.46433400  0.28125900  1
  O  O1942  1  0.28769725  0.46433400  0.53125900  1
  O  O1943  1  0.28769725  0.46433400  0.78125900  1
  O  O1944  1  0.28769725  0.71433400  0.03125900  1
  O  O1945  1  0.28769725  0.71433400  0.28125900  1
  O  O1946  1  0.28769725  0.71433400  0.53125900  1
  O  O1947  1  0.28769725  0.71433400  0.78125900  1
  O  O1948  1  0.28769725  0.96433400  0.03125900  1
  O  O1949  1  0.28769725  0.96433400  0.28125900  1
  O  O1950  1  0.28769725  0.96433400  0.53125900  1
  O  O1951  1  0.28769725  0.96433400  0.78125900  1
  O  O1952  1  0.53769725  0.21433400  0.03125900  1
  O  O1953  1  0.53769725  0.21433400  0.28125900  1
  O  O1954  1  0.53769725  0.21433400  0.53125900  1
  O  O1955  1  0.53769725  0.21433400  0.78125900  1
  O  O1956  1  0.53769725  0.46433400  0.03125900  1
  O  O1957  1  0.53769725  0.46433400  0.28125900  1
  O  O1958  1  0.53769725  0.46433400  0.53125900  1
  O  O1959  1  0.53769725  0.46433400  0.78125900  1
  O  O1960  1  0.53769725  0.71433400  0.03125900  1
  O  O1961  1  0.53769725  0.71433400  0.28125900  1
  O  O1962  1  0.53769725  0.71433400  0.53125900  1
  O  O1963  1  0.53769725  0.71433400  0.78125900  1
  O  O1964  1  0.53769725  0.96433400  0.03125900  1
  O  O1965  1  0.53769725  0.96433400  0.28125900  1
  O  O1966  1  0.53769725  0.96433400  0.53125900  1
  O  O1967  1  0.53769725  0.96433400  0.78125900  1
  O  O1968  1  0.78769725  0.21433400  0.03125900  1
  O  O1969  1  0.78769725  0.21433400  0.28125900  1
  O  O1970  1  0.78769725  0.21433400  0.53125900  1
  O  O1971  1  0.78769725  0.21433400  0.78125900  1
  O  O1972  1  0.78769725  0.46433400  0.03125900  1
  O  O1973  1  0.78769725  0.46433400  0.28125900  1
  O  O1974  1  0.78769725  0.46433400  0.53125900  1
  O  O1975  1  0.78769725  0.46433400  0.78125900  1
  O  O1976  1  0.78769725  0.71433400  0.03125900  1
  O  O1977  1  0.78769725  0.71433400  0.28125900  1
  O  O1978  1  0.78769725  0.71433400  0.53125900  1
  O  O1979  1  0.78769725  0.71433400  0.78125900  1
  O  O1980  1  0.78769725  0.96433400  0.03125900  1
  O  O1981  1  0.78769725  0.96433400  0.28125900  1
  O  O1982  1  0.78769725  0.96433400  0.53125900  1
  O  O1983  1  0.78769725  0.96433400  0.78125900  1
  O  O1984  1  0.21875900  0.22316600  0.10019725  1
  O  O1985  1  0.21875900  0.22316600  0.35019725  1
  O  O1986  1  0.21875900  0.22316600  0.60019725  1
  O  O1987  1  0.21875900  0.22316600  0.85019725  1
  O  O1988  1  0.21875900  0.47316600  0.10019725  1
  O  O1989  1  0.21875900  0.47316600  0.35019725  1
  O  O1990  1  0.21875900  0.47316600  0.60019725  1
  O  O1991  1  0.21875900  0.47316600  0.85019725  1
  O  O1992  1  0.21875900  0.72316600  0.10019725  1
  O  O1993  1  0.21875900  0.72316600  0.35019725  1
  O  O1994  1  0.21875900  0.72316600  0.60019725  1
  O  O1995  1  0.21875900  0.72316600  0.85019725  1
  O  O1996  1  0.21875900  0.97316600  0.10019725  1
  O  O1997  1  0.21875900  0.97316600  0.35019725  1
  O  O1998  1  0.21875900  0.97316600  0.60019725  1
  O  O1999  1  0.21875900  0.97316600  0.85019725  1
  O  O2000  1  0.46875900  0.22316600  0.10019725  1
  O  O2001  1  0.46875900  0.22316600  0.35019725  1
  O  O2002  1  0.46875900  0.22316600  0.60019725  1
  O  O2003  1  0.46875900  0.22316600  0.85019725  1
  O  O2004  1  0.46875900  0.47316600  0.10019725  1
  O  O2005  1  0.46875900  0.47316600  0.35019725  1
  O  O2006  1  0.46875900  0.47316600  0.60019725  1
  O  O2007  1  0.46875900  0.47316600  0.85019725  1
  O  O2008  1  0.46875900  0.72316600  0.10019725  1
  O  O2009  1  0.46875900  0.72316600  0.35019725  1
  O  O2010  1  0.46875900  0.72316600  0.60019725  1
  O  O2011  1  0.46875900  0.72316600  0.85019725  1
  O  O2012  1  0.46875900  0.97316600  0.10019725  1
  O  O2013  1  0.46875900  0.97316600  0.35019725  1
  O  O2014  1  0.46875900  0.97316600  0.60019725  1
  O  O2015  1  0.46875900  0.97316600  0.85019725  1
  O  O2016  1  0.71875900  0.22316600  0.10019725  1
  O  O2017  1  0.71875900  0.22316600  0.35019725  1
  O  O2018  1  0.71875900  0.22316600  0.60019725  1
  O  O2019  1  0.71875900  0.22316600  0.85019725  1
  O  O2020  1  0.71875900  0.47316600  0.10019725  1
  O  O2021  1  0.71875900  0.47316600  0.35019725  1
  O  O2022  1  0.71875900  0.47316600  0.60019725  1
  O  O2023  1  0.71875900  0.47316600  0.85019725  1
  O  O2024  1  0.71875900  0.72316600  0.10019725  1
  O  O2025  1  0.71875900  0.72316600  0.35019725  1
  O  O2026  1  0.71875900  0.72316600  0.60019725  1
  O  O2027  1  0.71875900  0.72316600  0.85019725  1
  O  O2028  1  0.71875900  0.97316600  0.10019725  1
  O  O2029  1  0.71875900  0.97316600  0.35019725  1
  O  O2030  1  0.71875900  0.97316600  0.60019725  1
  O  O2031  1  0.71875900  0.97316600  0.85019725  1
  O  O2032  1  0.96875900  0.22316600  0.10019725  1
  O  O2033  1  0.96875900  0.22316600  0.35019725  1
  O  O2034  1  0.96875900  0.22316600  0.60019725  1
  O  O2035  1  0.96875900  0.22316600  0.85019725  1
  O  O2036  1  0.96875900  0.47316600  0.10019725  1
  O  O2037  1  0.96875900  0.47316600  0.35019725  1
  O  O2038  1  0.96875900  0.47316600  0.60019725  1
  O  O2039  1  0.96875900  0.47316600  0.85019725  1
  O  O2040  1  0.96875900  0.72316600  0.10019725  1
  O  O2041  1  0.96875900  0.72316600  0.35019725  1
  O  O2042  1  0.96875900  0.72316600  0.60019725  1
  O  O2043  1  0.96875900  0.72316600  0.85019725  1
  O  O2044  1  0.96875900  0.97316600  0.10019725  1
  O  O2045  1  0.96875900  0.97316600  0.35019725  1
  O  O2046  1  0.96875900  0.97316600  0.60019725  1
  O  O2047  1  0.96875900  0.97316600  0.85019725  1
  O  O2048  1  0.10019725  0.21875900  0.22316600  1
  O  O2049  1  0.10019725  0.21875900  0.47316600  1
  O  O2050  1  0.10019725  0.21875900  0.72316600  1
  O  O2051  1  0.10019725  0.21875900  0.97316600  1
  O  O2052  1  0.10019725  0.46875900  0.22316600  1
  O  O2053  1  0.10019725  0.46875900  0.47316600  1
  O  O2054  1  0.10019725  0.46875900  0.72316600  1
  O  O2055  1  0.10019725  0.46875900  0.97316600  1
  O  O2056  1  0.10019725  0.71875900  0.22316600  1
  O  O2057  1  0.10019725  0.71875900  0.47316600  1
  O  O2058  1  0.10019725  0.71875900  0.72316600  1
  O  O2059  1  0.10019725  0.71875900  0.97316600  1
  O  O2060  1  0.10019725  0.96875900  0.22316600  1
  O  O2061  1  0.10019725  0.96875900  0.47316600  1
  O  O2062  1  0.10019725  0.96875900  0.72316600  1
  O  O2063  1  0.10019725  0.96875900  0.97316600  1
  O  O2064  1  0.35019725  0.21875900  0.22316600  1
  O  O2065  1  0.35019725  0.21875900  0.47316600  1
  O  O2066  1  0.35019725  0.21875900  0.72316600  1
  O  O2067  1  0.35019725  0.21875900  0.97316600  1
  O  O2068  1  0.35019725  0.46875900  0.22316600  1
  O  O2069  1  0.35019725  0.46875900  0.47316600  1
  O  O2070  1  0.35019725  0.46875900  0.72316600  1
  O  O2071  1  0.35019725  0.46875900  0.97316600  1
  O  O2072  1  0.35019725  0.71875900  0.22316600  1
  O  O2073  1  0.35019725  0.71875900  0.47316600  1
  O  O2074  1  0.35019725  0.71875900  0.72316600  1
  O  O2075  1  0.35019725  0.71875900  0.97316600  1
  O  O2076  1  0.35019725  0.96875900  0.22316600  1
  O  O2077  1  0.35019725  0.96875900  0.47316600  1
  O  O2078  1  0.35019725  0.96875900  0.72316600  1
  O  O2079  1  0.35019725  0.96875900  0.97316600  1
  O  O2080  1  0.60019725  0.21875900  0.22316600  1
  O  O2081  1  0.60019725  0.21875900  0.47316600  1
  O  O2082  1  0.60019725  0.21875900  0.72316600  1
  O  O2083  1  0.60019725  0.21875900  0.97316600  1
  O  O2084  1  0.60019725  0.46875900  0.22316600  1
  O  O2085  1  0.60019725  0.46875900  0.47316600  1
  O  O2086  1  0.60019725  0.46875900  0.72316600  1
  O  O2087  1  0.60019725  0.46875900  0.97316600  1
  O  O2088  1  0.60019725  0.71875900  0.22316600  1
  O  O2089  1  0.60019725  0.71875900  0.47316600  1
  O  O2090  1  0.60019725  0.71875900  0.72316600  1
  O  O2091  1  0.60019725  0.71875900  0.97316600  1
  O  O2092  1  0.60019725  0.96875900  0.22316600  1
  O  O2093  1  0.60019725  0.96875900  0.47316600  1
  O  O2094  1  0.60019725  0.96875900  0.72316600  1
  O  O2095  1  0.60019725  0.96875900  0.97316600  1
  O  O2096  1  0.85019725  0.21875900  0.22316600  1
  O  O2097  1  0.85019725  0.21875900  0.47316600  1
  O  O2098  1  0.85019725  0.21875900  0.72316600  1
  O  O2099  1  0.85019725  0.21875900  0.97316600  1
  O  O2100  1  0.85019725  0.46875900  0.22316600  1
  O  O2101  1  0.85019725  0.46875900  0.47316600  1
  O  O2102  1  0.85019725  0.46875900  0.72316600  1
  O  O2103  1  0.85019725  0.46875900  0.97316600  1
  O  O2104  1  0.85019725  0.71875900  0.22316600  1
  O  O2105  1  0.85019725  0.71875900  0.47316600  1
  O  O2106  1  0.85019725  0.71875900  0.72316600  1
  O  O2107  1  0.85019725  0.71875900  0.97316600  1
  O  O2108  1  0.85019725  0.96875900  0.22316600  1
  O  O2109  1  0.85019725  0.96875900  0.47316600  1
  O  O2110  1  0.85019725  0.96875900  0.72316600  1
  O  O2111  1  0.85019725  0.96875900  0.97316600  1
  O  O2112  1  0.14980275  0.09375900  0.15183400  1
  O  O2113  1  0.14980275  0.09375900  0.40183400  1
  O  O2114  1  0.14980275  0.09375900  0.65183400  1
  O  O2115  1  0.14980275  0.09375900  0.90183400  1
  O  O2116  1  0.14980275  0.34375900  0.15183400  1
  O  O2117  1  0.14980275  0.34375900  0.40183400  1
  O  O2118  1  0.14980275  0.34375900  0.65183400  1
  O  O2119  1  0.14980275  0.34375900  0.90183400  1
  O  O2120  1  0.14980275  0.59375900  0.15183400  1
  O  O2121  1  0.14980275  0.59375900  0.40183400  1
  O  O2122  1  0.14980275  0.59375900  0.65183400  1
  O  O2123  1  0.14980275  0.59375900  0.90183400  1
  O  O2124  1  0.14980275  0.84375900  0.15183400  1
  O  O2125  1  0.14980275  0.84375900  0.40183400  1
  O  O2126  1  0.14980275  0.84375900  0.65183400  1
  O  O2127  1  0.14980275  0.84375900  0.90183400  1
  O  O2128  1  0.39980275  0.09375900  0.15183400  1
  O  O2129  1  0.39980275  0.09375900  0.40183400  1
  O  O2130  1  0.39980275  0.09375900  0.65183400  1
  O  O2131  1  0.39980275  0.09375900  0.90183400  1
  O  O2132  1  0.39980275  0.34375900  0.15183400  1
  O  O2133  1  0.39980275  0.34375900  0.40183400  1
  O  O2134  1  0.39980275  0.34375900  0.65183400  1
  O  O2135  1  0.39980275  0.34375900  0.90183400  1
  O  O2136  1  0.39980275  0.59375900  0.15183400  1
  O  O2137  1  0.39980275  0.59375900  0.40183400  1
  O  O2138  1  0.39980275  0.59375900  0.65183400  1
  O  O2139  1  0.39980275  0.59375900  0.90183400  1
  O  O2140  1  0.39980275  0.84375900  0.15183400  1
  O  O2141  1  0.39980275  0.84375900  0.40183400  1
  O  O2142  1  0.39980275  0.84375900  0.65183400  1
  O  O2143  1  0.39980275  0.84375900  0.90183400  1
  O  O2144  1  0.64980275  0.09375900  0.15183400  1
  O  O2145  1  0.64980275  0.09375900  0.40183400  1
  O  O2146  1  0.64980275  0.09375900  0.65183400  1
  O  O2147  1  0.64980275  0.09375900  0.90183400  1
  O  O2148  1  0.64980275  0.34375900  0.15183400  1
  O  O2149  1  0.64980275  0.34375900  0.40183400  1
  O  O2150  1  0.64980275  0.34375900  0.65183400  1
  O  O2151  1  0.64980275  0.34375900  0.90183400  1
  O  O2152  1  0.64980275  0.59375900  0.15183400  1
  O  O2153  1  0.64980275  0.59375900  0.40183400  1
  O  O2154  1  0.64980275  0.59375900  0.65183400  1
  O  O2155  1  0.64980275  0.59375900  0.90183400  1
  O  O2156  1  0.64980275  0.84375900  0.15183400  1
  O  O2157  1  0.64980275  0.84375900  0.40183400  1
  O  O2158  1  0.64980275  0.84375900  0.65183400  1
  O  O2159  1  0.64980275  0.84375900  0.90183400  1
  O  O2160  1  0.89980275  0.09375900  0.15183400  1
  O  O2161  1  0.89980275  0.09375900  0.40183400  1
  O  O2162  1  0.89980275  0.09375900  0.65183400  1
  O  O2163  1  0.89980275  0.09375900  0.90183400  1
  O  O2164  1  0.89980275  0.34375900  0.15183400  1
  O  O2165  1  0.89980275  0.34375900  0.40183400  1
  O  O2166  1  0.89980275  0.34375900  0.65183400  1
  O  O2167  1  0.89980275  0.34375900  0.90183400  1
  O  O2168  1  0.89980275  0.59375900  0.15183400  1
  O  O2169  1  0.89980275  0.59375900  0.40183400  1
  O  O2170  1  0.89980275  0.59375900  0.65183400  1
  O  O2171  1  0.89980275  0.59375900  0.90183400  1
  O  O2172  1  0.89980275  0.84375900  0.15183400  1
  O  O2173  1  0.89980275  0.84375900  0.40183400  1
  O  O2174  1  0.89980275  0.84375900  0.65183400  1
  O  O2175  1  0.89980275  0.84375900  0.90183400  1
  O  O2176  1  0.09608850  0.09608850  0.09608850  1
  O  O2177  1  0.09608850  0.09608850  0.34608850  1
  O  O2178  1  0.09608850  0.09608850  0.59608850  1
  O  O2179  1  0.09608850  0.09608850  0.84608850  1
  O  O2180  1  0.09608850  0.34608850  0.09608850  1
  O  O2181  1  0.09608850  0.34608850  0.34608850  1
  O  O2182  1  0.09608850  0.34608850  0.59608850  1
  O  O2183  1  0.09608850  0.34608850  0.84608850  1
  O  O2184  1  0.09608850  0.59608850  0.09608850  1
  O  O2185  1  0.09608850  0.59608850  0.34608850  1
  O  O2186  1  0.09608850  0.59608850  0.59608850  1
  O  O2187  1  0.09608850  0.59608850  0.84608850  1
  O  O2188  1  0.09608850  0.84608850  0.09608850  1
  O  O2189  1  0.09608850  0.84608850  0.34608850  1
  O  O2190  1  0.09608850  0.84608850  0.59608850  1
  O  O2191  1  0.09608850  0.84608850  0.84608850  1
  O  O2192  1  0.34608850  0.09608850  0.09608850  1
  O  O2193  1  0.34608850  0.09608850  0.34608850  1
  O  O2194  1  0.34608850  0.09608850  0.59608850  1
  O  O2195  1  0.34608850  0.09608850  0.84608850  1
  O  O2196  1  0.34608850  0.34608850  0.09608850  1
  O  O2197  1  0.34608850  0.34608850  0.34608850  1
  O  O2198  1  0.34608850  0.34608850  0.59608850  1
  O  O2199  1  0.34608850  0.34608850  0.84608850  1
  O  O2200  1  0.34608850  0.59608850  0.09608850  1
  O  O2201  1  0.34608850  0.59608850  0.34608850  1
  O  O2202  1  0.34608850  0.59608850  0.59608850  1
  O  O2203  1  0.34608850  0.59608850  0.84608850  1
  O  O2204  1  0.34608850  0.84608850  0.09608850  1
  O  O2205  1  0.34608850  0.84608850  0.34608850  1
  O  O2206  1  0.34608850  0.84608850  0.59608850  1
  O  O2207  1  0.34608850  0.84608850  0.84608850  1
  O  O2208  1  0.59608850  0.09608850  0.09608850  1
  O  O2209  1  0.59608850  0.09608850  0.34608850  1
  O  O2210  1  0.59608850  0.09608850  0.59608850  1
  O  O2211  1  0.59608850  0.09608850  0.84608850  1
  O  O2212  1  0.59608850  0.34608850  0.09608850  1
  O  O2213  1  0.59608850  0.34608850  0.34608850  1
  O  O2214  1  0.59608850  0.34608850  0.59608850  1
  O  O2215  1  0.59608850  0.34608850  0.84608850  1
  O  O2216  1  0.59608850  0.59608850  0.09608850  1
  O  O2217  1  0.59608850  0.59608850  0.34608850  1
  O  O2218  1  0.59608850  0.59608850  0.59608850  1
  O  O2219  1  0.59608850  0.59608850  0.84608850  1
  O  O2220  1  0.59608850  0.84608850  0.09608850  1
  O  O2221  1  0.59608850  0.84608850  0.34608850  1
  O  O2222  1  0.59608850  0.84608850  0.59608850  1
  O  O2223  1  0.59608850  0.84608850  0.84608850  1
  O  O2224  1  0.84608850  0.09608850  0.09608850  1
  O  O2225  1  0.84608850  0.09608850  0.34608850  1
  O  O2226  1  0.84608850  0.09608850  0.59608850  1
  O  O2227  1  0.84608850  0.09608850  0.84608850  1
  O  O2228  1  0.84608850  0.34608850  0.09608850  1
  O  O2229  1  0.84608850  0.34608850  0.34608850  1
  O  O2230  1  0.84608850  0.34608850  0.59608850  1
  O  O2231  1  0.84608850  0.34608850  0.84608850  1
  O  O2232  1  0.84608850  0.59608850  0.09608850  1
  O  O2233  1  0.84608850  0.59608850  0.34608850  1
  O  O2234  1  0.84608850  0.59608850  0.59608850  1
  O  O2235  1  0.84608850  0.59608850  0.84608850  1
  O  O2236  1  0.84608850  0.84608850  0.09608850  1
  O  O2237  1  0.84608850  0.84608850  0.34608850  1
  O  O2238  1  0.84608850  0.84608850  0.59608850  1
  O  O2239  1  0.84608850  0.84608850  0.84608850  1
  O  O2240  1  0.09374100  0.21230275  0.08933400  1
  O  O2241  1  0.09374100  0.21230275  0.33933400  1
  O  O2242  1  0.09374100  0.21230275  0.58933400  1
  O  O2243  1  0.09374100  0.21230275  0.83933400  1
  O  O2244  1  0.09374100  0.46230275  0.08933400  1
  O  O2245  1  0.09374100  0.46230275  0.33933400  1
  O  O2246  1  0.09374100  0.46230275  0.58933400  1
  O  O2247  1  0.09374100  0.46230275  0.83933400  1
  O  O2248  1  0.09374100  0.71230275  0.08933400  1
  O  O2249  1  0.09374100  0.71230275  0.33933400  1
  O  O2250  1  0.09374100  0.71230275  0.58933400  1
  O  O2251  1  0.09374100  0.71230275  0.83933400  1
  O  O2252  1  0.09374100  0.96230275  0.08933400  1
  O  O2253  1  0.09374100  0.96230275  0.33933400  1
  O  O2254  1  0.09374100  0.96230275  0.58933400  1
  O  O2255  1  0.09374100  0.96230275  0.83933400  1
  O  O2256  1  0.34374100  0.21230275  0.08933400  1
  O  O2257  1  0.34374100  0.21230275  0.33933400  1
  O  O2258  1  0.34374100  0.21230275  0.58933400  1
  O  O2259  1  0.34374100  0.21230275  0.83933400  1
  O  O2260  1  0.34374100  0.46230275  0.08933400  1
  O  O2261  1  0.34374100  0.46230275  0.33933400  1
  O  O2262  1  0.34374100  0.46230275  0.58933400  1
  O  O2263  1  0.34374100  0.46230275  0.83933400  1
  O  O2264  1  0.34374100  0.71230275  0.08933400  1
  O  O2265  1  0.34374100  0.71230275  0.33933400  1
  O  O2266  1  0.34374100  0.71230275  0.58933400  1
  O  O2267  1  0.34374100  0.71230275  0.83933400  1
  O  O2268  1  0.34374100  0.96230275  0.08933400  1
  O  O2269  1  0.34374100  0.96230275  0.33933400  1
  O  O2270  1  0.34374100  0.96230275  0.58933400  1
  O  O2271  1  0.34374100  0.96230275  0.83933400  1
  O  O2272  1  0.59374100  0.21230275  0.08933400  1
  O  O2273  1  0.59374100  0.21230275  0.33933400  1
  O  O2274  1  0.59374100  0.21230275  0.58933400  1
  O  O2275  1  0.59374100  0.21230275  0.83933400  1
  O  O2276  1  0.59374100  0.46230275  0.08933400  1
  O  O2277  1  0.59374100  0.46230275  0.33933400  1
  O  O2278  1  0.59374100  0.46230275  0.58933400  1
  O  O2279  1  0.59374100  0.46230275  0.83933400  1
  O  O2280  1  0.59374100  0.71230275  0.08933400  1
  O  O2281  1  0.59374100  0.71230275  0.33933400  1
  O  O2282  1  0.59374100  0.71230275  0.58933400  1
  O  O2283  1  0.59374100  0.71230275  0.83933400  1
  O  O2284  1  0.59374100  0.96230275  0.08933400  1
  O  O2285  1  0.59374100  0.96230275  0.33933400  1
  O  O2286  1  0.59374100  0.96230275  0.58933400  1
  O  O2287  1  0.59374100  0.96230275  0.83933400  1
  O  O2288  1  0.84374100  0.21230275  0.08933400  1
  O  O2289  1  0.84374100  0.21230275  0.33933400  1
  O  O2290  1  0.84374100  0.21230275  0.58933400  1
  O  O2291  1  0.84374100  0.21230275  0.83933400  1
  O  O2292  1  0.84374100  0.46230275  0.08933400  1
  O  O2293  1  0.84374100  0.46230275  0.33933400  1
  O  O2294  1  0.84374100  0.46230275  0.58933400  1
  O  O2295  1  0.84374100  0.46230275  0.83933400  1
  O  O2296  1  0.84374100  0.71230275  0.08933400  1
  O  O2297  1  0.84374100  0.71230275  0.33933400  1
  O  O2298  1  0.84374100  0.71230275  0.58933400  1
  O  O2299  1  0.84374100  0.71230275  0.83933400  1
  O  O2300  1  0.84374100  0.96230275  0.08933400  1
  O  O2301  1  0.84374100  0.96230275  0.33933400  1
  O  O2302  1  0.84374100  0.96230275  0.58933400  1
  O  O2303  1  0.84374100  0.96230275  0.83933400  1
  O  O2304  1  0.22519725  0.15624100  0.02683400  1
  O  O2305  1  0.22519725  0.15624100  0.27683400  1
  O  O2306  1  0.22519725  0.15624100  0.52683400  1
  O  O2307  1  0.22519725  0.15624100  0.77683400  1
  O  O2308  1  0.22519725  0.40624100  0.02683400  1
  O  O2309  1  0.22519725  0.40624100  0.27683400  1
  O  O2310  1  0.22519725  0.40624100  0.52683400  1
  O  O2311  1  0.22519725  0.40624100  0.77683400  1
  O  O2312  1  0.22519725  0.65624100  0.02683400  1
  O  O2313  1  0.22519725  0.65624100  0.27683400  1
  O  O2314  1  0.22519725  0.65624100  0.52683400  1
  O  O2315  1  0.22519725  0.65624100  0.77683400  1
  O  O2316  1  0.22519725  0.90624100  0.02683400  1
  O  O2317  1  0.22519725  0.90624100  0.27683400  1
  O  O2318  1  0.22519725  0.90624100  0.52683400  1
  O  O2319  1  0.22519725  0.90624100  0.77683400  1
  O  O2320  1  0.47519725  0.15624100  0.02683400  1
  O  O2321  1  0.47519725  0.15624100  0.27683400  1
  O  O2322  1  0.47519725  0.15624100  0.52683400  1
  O  O2323  1  0.47519725  0.15624100  0.77683400  1
  O  O2324  1  0.47519725  0.40624100  0.02683400  1
  O  O2325  1  0.47519725  0.40624100  0.27683400  1
  O  O2326  1  0.47519725  0.40624100  0.52683400  1
  O  O2327  1  0.47519725  0.40624100  0.77683400  1
  O  O2328  1  0.47519725  0.65624100  0.02683400  1
  O  O2329  1  0.47519725  0.65624100  0.27683400  1
  O  O2330  1  0.47519725  0.65624100  0.52683400  1
  O  O2331  1  0.47519725  0.65624100  0.77683400  1
  O  O2332  1  0.47519725  0.90624100  0.02683400  1
  O  O2333  1  0.47519725  0.90624100  0.27683400  1
  O  O2334  1  0.47519725  0.90624100  0.52683400  1
  O  O2335  1  0.47519725  0.90624100  0.77683400  1
  O  O2336  1  0.72519725  0.15624100  0.02683400  1
  O  O2337  1  0.72519725  0.15624100  0.27683400  1
  O  O2338  1  0.72519725  0.15624100  0.52683400  1
  O  O2339  1  0.72519725  0.15624100  0.77683400  1
  O  O2340  1  0.72519725  0.40624100  0.02683400  1
  O  O2341  1  0.72519725  0.40624100  0.27683400  1
  O  O2342  1  0.72519725  0.40624100  0.52683400  1
  O  O2343  1  0.72519725  0.40624100  0.77683400  1
  O  O2344  1  0.72519725  0.65624100  0.02683400  1
  O  O2345  1  0.72519725  0.65624100  0.27683400  1
  O  O2346  1  0.72519725  0.65624100  0.52683400  1
  O  O2347  1  0.72519725  0.65624100  0.77683400  1
  O  O2348  1  0.72519725  0.90624100  0.02683400  1
  O  O2349  1  0.72519725  0.90624100  0.27683400  1
  O  O2350  1  0.72519725  0.90624100  0.52683400  1
  O  O2351  1  0.72519725  0.90624100  0.77683400  1
  O  O2352  1  0.97519725  0.15624100  0.02683400  1
  O  O2353  1  0.97519725  0.15624100  0.27683400  1
  O  O2354  1  0.97519725  0.15624100  0.52683400  1
  O  O2355  1  0.97519725  0.15624100  0.77683400  1
  O  O2356  1  0.97519725  0.40624100  0.02683400  1
  O  O2357  1  0.97519725  0.40624100  0.27683400  1
  O  O2358  1  0.97519725  0.40624100  0.52683400  1
  O  O2359  1  0.97519725  0.40624100  0.77683400  1
  O  O2360  1  0.97519725  0.65624100  0.02683400  1
  O  O2361  1  0.97519725  0.65624100  0.27683400  1
  O  O2362  1  0.97519725  0.65624100  0.52683400  1
  O  O2363  1  0.97519725  0.65624100  0.77683400  1
  O  O2364  1  0.97519725  0.90624100  0.02683400  1
  O  O2365  1  0.97519725  0.90624100  0.27683400  1
  O  O2366  1  0.97519725  0.90624100  0.52683400  1
  O  O2367  1  0.97519725  0.90624100  0.77683400  1
  O  O2368  1  0.21433400  0.03125900  0.03769725  1
  O  O2369  1  0.21433400  0.03125900  0.28769725  1
  O  O2370  1  0.21433400  0.03125900  0.53769725  1
  O  O2371  1  0.21433400  0.03125900  0.78769725  1
  O  O2372  1  0.21433400  0.28125900  0.03769725  1
  O  O2373  1  0.21433400  0.28125900  0.28769725  1
  O  O2374  1  0.21433400  0.28125900  0.53769725  1
  O  O2375  1  0.21433400  0.28125900  0.78769725  1
  O  O2376  1  0.21433400  0.53125900  0.03769725  1
  O  O2377  1  0.21433400  0.53125900  0.28769725  1
  O  O2378  1  0.21433400  0.53125900  0.53769725  1
  O  O2379  1  0.21433400  0.53125900  0.78769725  1
  O  O2380  1  0.21433400  0.78125900  0.03769725  1
  O  O2381  1  0.21433400  0.78125900  0.28769725  1
  O  O2382  1  0.21433400  0.78125900  0.53769725  1
  O  O2383  1  0.21433400  0.78125900  0.78769725  1
  O  O2384  1  0.46433400  0.03125900  0.03769725  1
  O  O2385  1  0.46433400  0.03125900  0.28769725  1
  O  O2386  1  0.46433400  0.03125900  0.53769725  1
  O  O2387  1  0.46433400  0.03125900  0.78769725  1
  O  O2388  1  0.46433400  0.28125900  0.03769725  1
  O  O2389  1  0.46433400  0.28125900  0.28769725  1
  O  O2390  1  0.46433400  0.28125900  0.53769725  1
  O  O2391  1  0.46433400  0.28125900  0.78769725  1
  O  O2392  1  0.46433400  0.53125900  0.03769725  1
  O  O2393  1  0.46433400  0.53125900  0.28769725  1
  O  O2394  1  0.46433400  0.53125900  0.53769725  1
  O  O2395  1  0.46433400  0.53125900  0.78769725  1
  O  O2396  1  0.46433400  0.78125900  0.03769725  1
  O  O2397  1  0.46433400  0.78125900  0.28769725  1
  O  O2398  1  0.46433400  0.78125900  0.53769725  1
  O  O2399  1  0.46433400  0.78125900  0.78769725  1
  O  O2400  1  0.71433400  0.03125900  0.03769725  1
  O  O2401  1  0.71433400  0.03125900  0.28769725  1
  O  O2402  1  0.71433400  0.03125900  0.53769725  1
  O  O2403  1  0.71433400  0.03125900  0.78769725  1
  O  O2404  1  0.71433400  0.28125900  0.03769725  1
  O  O2405  1  0.71433400  0.28125900  0.28769725  1
  O  O2406  1  0.71433400  0.28125900  0.53769725  1
  O  O2407  1  0.71433400  0.28125900  0.78769725  1
  O  O2408  1  0.71433400  0.53125900  0.03769725  1
  O  O2409  1  0.71433400  0.53125900  0.28769725  1
  O  O2410  1  0.71433400  0.53125900  0.53769725  1
  O  O2411  1  0.71433400  0.53125900  0.78769725  1
  O  O2412  1  0.71433400  0.78125900  0.03769725  1
  O  O2413  1  0.71433400  0.78125900  0.28769725  1
  O  O2414  1  0.71433400  0.78125900  0.53769725  1
  O  O2415  1  0.71433400  0.78125900  0.78769725  1
  O  O2416  1  0.96433400  0.03125900  0.03769725  1
  O  O2417  1  0.96433400  0.03125900  0.28769725  1
  O  O2418  1  0.96433400  0.03125900  0.53769725  1
  O  O2419  1  0.96433400  0.03125900  0.78769725  1
  O  O2420  1  0.96433400  0.28125900  0.03769725  1
  O  O2421  1  0.96433400  0.28125900  0.28769725  1
  O  O2422  1  0.96433400  0.28125900  0.53769725  1
  O  O2423  1  0.96433400  0.28125900  0.78769725  1
  O  O2424  1  0.96433400  0.53125900  0.03769725  1
  O  O2425  1  0.96433400  0.53125900  0.28769725  1
  O  O2426  1  0.96433400  0.53125900  0.53769725  1
  O  O2427  1  0.96433400  0.53125900  0.78769725  1
  O  O2428  1  0.96433400  0.78125900  0.03769725  1
  O  O2429  1  0.96433400  0.78125900  0.28769725  1
  O  O2430  1  0.96433400  0.78125900  0.53769725  1
  O  O2431  1  0.96433400  0.78125900  0.78769725  1
  O  O2432  1  0.22316600  0.10019725  0.21875900  1
  O  O2433  1  0.22316600  0.10019725  0.46875900  1
  O  O2434  1  0.22316600  0.10019725  0.71875900  1
  O  O2435  1  0.22316600  0.10019725  0.96875900  1
  O  O2436  1  0.22316600  0.35019725  0.21875900  1
  O  O2437  1  0.22316600  0.35019725  0.46875900  1
  O  O2438  1  0.22316600  0.35019725  0.71875900  1
  O  O2439  1  0.22316600  0.35019725  0.96875900  1
  O  O2440  1  0.22316600  0.60019725  0.21875900  1
  O  O2441  1  0.22316600  0.60019725  0.46875900  1
  O  O2442  1  0.22316600  0.60019725  0.71875900  1
  O  O2443  1  0.22316600  0.60019725  0.96875900  1
  O  O2444  1  0.22316600  0.85019725  0.21875900  1
  O  O2445  1  0.22316600  0.85019725  0.46875900  1
  O  O2446  1  0.22316600  0.85019725  0.71875900  1
  O  O2447  1  0.22316600  0.85019725  0.96875900  1
  O  O2448  1  0.47316600  0.10019725  0.21875900  1
  O  O2449  1  0.47316600  0.10019725  0.46875900  1
  O  O2450  1  0.47316600  0.10019725  0.71875900  1
  O  O2451  1  0.47316600  0.10019725  0.96875900  1
  O  O2452  1  0.47316600  0.35019725  0.21875900  1
  O  O2453  1  0.47316600  0.35019725  0.46875900  1
  O  O2454  1  0.47316600  0.35019725  0.71875900  1
  O  O2455  1  0.47316600  0.35019725  0.96875900  1
  O  O2456  1  0.47316600  0.60019725  0.21875900  1
  O  O2457  1  0.47316600  0.60019725  0.46875900  1
  O  O2458  1  0.47316600  0.60019725  0.71875900  1
  O  O2459  1  0.47316600  0.60019725  0.96875900  1
  O  O2460  1  0.47316600  0.85019725  0.21875900  1
  O  O2461  1  0.47316600  0.85019725  0.46875900  1
  O  O2462  1  0.47316600  0.85019725  0.71875900  1
  O  O2463  1  0.47316600  0.85019725  0.96875900  1
  O  O2464  1  0.72316600  0.10019725  0.21875900  1
  O  O2465  1  0.72316600  0.10019725  0.46875900  1
  O  O2466  1  0.72316600  0.10019725  0.71875900  1
  O  O2467  1  0.72316600  0.10019725  0.96875900  1
  O  O2468  1  0.72316600  0.35019725  0.21875900  1
  O  O2469  1  0.72316600  0.35019725  0.46875900  1
  O  O2470  1  0.72316600  0.35019725  0.71875900  1
  O  O2471  1  0.72316600  0.35019725  0.96875900  1
  O  O2472  1  0.72316600  0.60019725  0.21875900  1
  O  O2473  1  0.72316600  0.60019725  0.46875900  1
  O  O2474  1  0.72316600  0.60019725  0.71875900  1
  O  O2475  1  0.72316600  0.60019725  0.96875900  1
  O  O2476  1  0.72316600  0.85019725  0.21875900  1
  O  O2477  1  0.72316600  0.85019725  0.46875900  1
  O  O2478  1  0.72316600  0.85019725  0.71875900  1
  O  O2479  1  0.72316600  0.85019725  0.96875900  1
  O  O2480  1  0.97316600  0.10019725  0.21875900  1
  O  O2481  1  0.97316600  0.10019725  0.46875900  1
  O  O2482  1  0.97316600  0.10019725  0.71875900  1
  O  O2483  1  0.97316600  0.10019725  0.96875900  1
  O  O2484  1  0.97316600  0.35019725  0.21875900  1
  O  O2485  1  0.97316600  0.35019725  0.46875900  1
  O  O2486  1  0.97316600  0.35019725  0.71875900  1
  O  O2487  1  0.97316600  0.35019725  0.96875900  1
  O  O2488  1  0.97316600  0.60019725  0.21875900  1
  O  O2489  1  0.97316600  0.60019725  0.46875900  1
  O  O2490  1  0.97316600  0.60019725  0.71875900  1
  O  O2491  1  0.97316600  0.60019725  0.96875900  1
  O  O2492  1  0.97316600  0.85019725  0.21875900  1
  O  O2493  1  0.97316600  0.85019725  0.46875900  1
  O  O2494  1  0.97316600  0.85019725  0.71875900  1
  O  O2495  1  0.97316600  0.85019725  0.96875900  1
  O  O2496  1  0.03566600  0.15625900  0.08730275  1
  O  O2497  1  0.03566600  0.15625900  0.33730275  1
  O  O2498  1  0.03566600  0.15625900  0.58730275  1
  O  O2499  1  0.03566600  0.15625900  0.83730275  1
  O  O2500  1  0.03566600  0.40625900  0.08730275  1
  O  O2501  1  0.03566600  0.40625900  0.33730275  1
  O  O2502  1  0.03566600  0.40625900  0.58730275  1
  O  O2503  1  0.03566600  0.40625900  0.83730275  1
  O  O2504  1  0.03566600  0.65625900  0.08730275  1
  O  O2505  1  0.03566600  0.65625900  0.33730275  1
  O  O2506  1  0.03566600  0.65625900  0.58730275  1
  O  O2507  1  0.03566600  0.65625900  0.83730275  1
  O  O2508  1  0.03566600  0.90625900  0.08730275  1
  O  O2509  1  0.03566600  0.90625900  0.33730275  1
  O  O2510  1  0.03566600  0.90625900  0.58730275  1
  O  O2511  1  0.03566600  0.90625900  0.83730275  1
  O  O2512  1  0.28566600  0.15625900  0.08730275  1
  O  O2513  1  0.28566600  0.15625900  0.33730275  1
  O  O2514  1  0.28566600  0.15625900  0.58730275  1
  O  O2515  1  0.28566600  0.15625900  0.83730275  1
  O  O2516  1  0.28566600  0.40625900  0.08730275  1
  O  O2517  1  0.28566600  0.40625900  0.33730275  1
  O  O2518  1  0.28566600  0.40625900  0.58730275  1
  O  O2519  1  0.28566600  0.40625900  0.83730275  1
  O  O2520  1  0.28566600  0.65625900  0.08730275  1
  O  O2521  1  0.28566600  0.65625900  0.33730275  1
  O  O2522  1  0.28566600  0.65625900  0.58730275  1
  O  O2523  1  0.28566600  0.65625900  0.83730275  1
  O  O2524  1  0.28566600  0.90625900  0.08730275  1
  O  O2525  1  0.28566600  0.90625900  0.33730275  1
  O  O2526  1  0.28566600  0.90625900  0.58730275  1
  O  O2527  1  0.28566600  0.90625900  0.83730275  1
  O  O2528  1  0.53566600  0.15625900  0.08730275  1
  O  O2529  1  0.53566600  0.15625900  0.33730275  1
  O  O2530  1  0.53566600  0.15625900  0.58730275  1
  O  O2531  1  0.53566600  0.15625900  0.83730275  1
  O  O2532  1  0.53566600  0.40625900  0.08730275  1
  O  O2533  1  0.53566600  0.40625900  0.33730275  1
  O  O2534  1  0.53566600  0.40625900  0.58730275  1
  O  O2535  1  0.53566600  0.40625900  0.83730275  1
  O  O2536  1  0.53566600  0.65625900  0.08730275  1
  O  O2537  1  0.53566600  0.65625900  0.33730275  1
  O  O2538  1  0.53566600  0.65625900  0.58730275  1
  O  O2539  1  0.53566600  0.65625900  0.83730275  1
  O  O2540  1  0.53566600  0.90625900  0.08730275  1
  O  O2541  1  0.53566600  0.90625900  0.33730275  1
  O  O2542  1  0.53566600  0.90625900  0.58730275  1
  O  O2543  1  0.53566600  0.90625900  0.83730275  1
  O  O2544  1  0.78566600  0.15625900  0.08730275  1
  O  O2545  1  0.78566600  0.15625900  0.33730275  1
  O  O2546  1  0.78566600  0.15625900  0.58730275  1
  O  O2547  1  0.78566600  0.15625900  0.83730275  1
  O  O2548  1  0.78566600  0.40625900  0.08730275  1
  O  O2549  1  0.78566600  0.40625900  0.33730275  1
  O  O2550  1  0.78566600  0.40625900  0.58730275  1
  O  O2551  1  0.78566600  0.40625900  0.83730275  1
  O  O2552  1  0.78566600  0.65625900  0.08730275  1
  O  O2553  1  0.78566600  0.65625900  0.33730275  1
  O  O2554  1  0.78566600  0.65625900  0.58730275  1
  O  O2555  1  0.78566600  0.65625900  0.83730275  1
  O  O2556  1  0.78566600  0.90625900  0.08730275  1
  O  O2557  1  0.78566600  0.90625900  0.33730275  1
  O  O2558  1  0.78566600  0.90625900  0.58730275  1
  O  O2559  1  0.78566600  0.90625900  0.83730275  1
  O  O2560  1  0.16269725  0.16066600  0.21874100  1
  O  O2561  1  0.16269725  0.16066600  0.46874100  1
  O  O2562  1  0.16269725  0.16066600  0.71874100  1
  O  O2563  1  0.16269725  0.16066600  0.96874100  1
  O  O2564  1  0.16269725  0.41066600  0.21874100  1
  O  O2565  1  0.16269725  0.41066600  0.46874100  1
  O  O2566  1  0.16269725  0.41066600  0.71874100  1
  O  O2567  1  0.16269725  0.41066600  0.96874100  1
  O  O2568  1  0.16269725  0.66066600  0.21874100  1
  O  O2569  1  0.16269725  0.66066600  0.46874100  1
  O  O2570  1  0.16269725  0.66066600  0.71874100  1
  O  O2571  1  0.16269725  0.66066600  0.96874100  1
  O  O2572  1  0.16269725  0.91066600  0.21874100  1
  O  O2573  1  0.16269725  0.91066600  0.46874100  1
  O  O2574  1  0.16269725  0.91066600  0.71874100  1
  O  O2575  1  0.16269725  0.91066600  0.96874100  1
  O  O2576  1  0.41269725  0.16066600  0.21874100  1
  O  O2577  1  0.41269725  0.16066600  0.46874100  1
  O  O2578  1  0.41269725  0.16066600  0.71874100  1
  O  O2579  1  0.41269725  0.16066600  0.96874100  1
  O  O2580  1  0.41269725  0.41066600  0.21874100  1
  O  O2581  1  0.41269725  0.41066600  0.46874100  1
  O  O2582  1  0.41269725  0.41066600  0.71874100  1
  O  O2583  1  0.41269725  0.41066600  0.96874100  1
  O  O2584  1  0.41269725  0.66066600  0.21874100  1
  O  O2585  1  0.41269725  0.66066600  0.46874100  1
  O  O2586  1  0.41269725  0.66066600  0.71874100  1
  O  O2587  1  0.41269725  0.66066600  0.96874100  1
  O  O2588  1  0.41269725  0.91066600  0.21874100  1
  O  O2589  1  0.41269725  0.91066600  0.46874100  1
  O  O2590  1  0.41269725  0.91066600  0.71874100  1
  O  O2591  1  0.41269725  0.91066600  0.96874100  1
  O  O2592  1  0.66269725  0.16066600  0.21874100  1
  O  O2593  1  0.66269725  0.16066600  0.46874100  1
  O  O2594  1  0.66269725  0.16066600  0.71874100  1
  O  O2595  1  0.66269725  0.16066600  0.96874100  1
  O  O2596  1  0.66269725  0.41066600  0.21874100  1
  O  O2597  1  0.66269725  0.41066600  0.46874100  1
  O  O2598  1  0.66269725  0.41066600  0.71874100  1
  O  O2599  1  0.66269725  0.41066600  0.96874100  1
  O  O2600  1  0.66269725  0.66066600  0.21874100  1
  O  O2601  1  0.66269725  0.66066600  0.46874100  1
  O  O2602  1  0.66269725  0.66066600  0.71874100  1
  O  O2603  1  0.66269725  0.66066600  0.96874100  1
  O  O2604  1  0.66269725  0.91066600  0.21874100  1
  O  O2605  1  0.66269725  0.91066600  0.46874100  1
  O  O2606  1  0.66269725  0.91066600  0.71874100  1
  O  O2607  1  0.66269725  0.91066600  0.96874100  1
  O  O2608  1  0.91269725  0.16066600  0.21874100  1
  O  O2609  1  0.91269725  0.16066600  0.46874100  1
  O  O2610  1  0.91269725  0.16066600  0.71874100  1
  O  O2611  1  0.91269725  0.16066600  0.96874100  1
  O  O2612  1  0.91269725  0.41066600  0.21874100  1
  O  O2613  1  0.91269725  0.41066600  0.46874100  1
  O  O2614  1  0.91269725  0.41066600  0.71874100  1
  O  O2615  1  0.91269725  0.41066600  0.96874100  1
  O  O2616  1  0.91269725  0.66066600  0.21874100  1
  O  O2617  1  0.91269725  0.66066600  0.46874100  1
  O  O2618  1  0.91269725  0.66066600  0.71874100  1
  O  O2619  1  0.91269725  0.66066600  0.96874100  1
  O  O2620  1  0.91269725  0.91066600  0.21874100  1
  O  O2621  1  0.91269725  0.91066600  0.46874100  1
  O  O2622  1  0.91269725  0.91066600  0.71874100  1
  O  O2623  1  0.91269725  0.91066600  0.96874100  1
  O  O2624  1  0.15391150  0.22108850  0.02891150  1
  O  O2625  1  0.15391150  0.22108850  0.27891150  1
  O  O2626  1  0.15391150  0.22108850  0.52891150  1
  O  O2627  1  0.15391150  0.22108850  0.77891150  1
  O  O2628  1  0.15391150  0.47108850  0.02891150  1
  O  O2629  1  0.15391150  0.47108850  0.27891150  1
  O  O2630  1  0.15391150  0.47108850  0.52891150  1
  O  O2631  1  0.15391150  0.47108850  0.77891150  1
  O  O2632  1  0.15391150  0.72108850  0.02891150  1
  O  O2633  1  0.15391150  0.72108850  0.27891150  1
  O  O2634  1  0.15391150  0.72108850  0.52891150  1
  O  O2635  1  0.15391150  0.72108850  0.77891150  1
  O  O2636  1  0.15391150  0.97108850  0.02891150  1
  O  O2637  1  0.15391150  0.97108850  0.27891150  1
  O  O2638  1  0.15391150  0.97108850  0.52891150  1
  O  O2639  1  0.15391150  0.97108850  0.77891150  1
  O  O2640  1  0.40391150  0.22108850  0.02891150  1
  O  O2641  1  0.40391150  0.22108850  0.27891150  1
  O  O2642  1  0.40391150  0.22108850  0.52891150  1
  O  O2643  1  0.40391150  0.22108850  0.77891150  1
  O  O2644  1  0.40391150  0.47108850  0.02891150  1
  O  O2645  1  0.40391150  0.47108850  0.27891150  1
  O  O2646  1  0.40391150  0.47108850  0.52891150  1
  O  O2647  1  0.40391150  0.47108850  0.77891150  1
  O  O2648  1  0.40391150  0.72108850  0.02891150  1
  O  O2649  1  0.40391150  0.72108850  0.27891150  1
  O  O2650  1  0.40391150  0.72108850  0.52891150  1
  O  O2651  1  0.40391150  0.72108850  0.77891150  1
  O  O2652  1  0.40391150  0.97108850  0.02891150  1
  O  O2653  1  0.40391150  0.97108850  0.27891150  1
  O  O2654  1  0.40391150  0.97108850  0.52891150  1
  O  O2655  1  0.40391150  0.97108850  0.77891150  1
  O  O2656  1  0.65391150  0.22108850  0.02891150  1
  O  O2657  1  0.65391150  0.22108850  0.27891150  1
  O  O2658  1  0.65391150  0.22108850  0.52891150  1
  O  O2659  1  0.65391150  0.22108850  0.77891150  1
  O  O2660  1  0.65391150  0.47108850  0.02891150  1
  O  O2661  1  0.65391150  0.47108850  0.27891150  1
  O  O2662  1  0.65391150  0.47108850  0.52891150  1
  O  O2663  1  0.65391150  0.47108850  0.77891150  1
  O  O2664  1  0.65391150  0.72108850  0.02891150  1
  O  O2665  1  0.65391150  0.72108850  0.27891150  1
  O  O2666  1  0.65391150  0.72108850  0.52891150  1
  O  O2667  1  0.65391150  0.72108850  0.77891150  1
  O  O2668  1  0.65391150  0.97108850  0.02891150  1
  O  O2669  1  0.65391150  0.97108850  0.27891150  1
  O  O2670  1  0.65391150  0.97108850  0.52891150  1
  O  O2671  1  0.65391150  0.97108850  0.77891150  1
  O  O2672  1  0.90391150  0.22108850  0.02891150  1
  O  O2673  1  0.90391150  0.22108850  0.27891150  1
  O  O2674  1  0.90391150  0.22108850  0.52891150  1
  O  O2675  1  0.90391150  0.22108850  0.77891150  1
  O  O2676  1  0.90391150  0.47108850  0.02891150  1
  O  O2677  1  0.90391150  0.47108850  0.27891150  1
  O  O2678  1  0.90391150  0.47108850  0.52891150  1
  O  O2679  1  0.90391150  0.47108850  0.77891150  1
  O  O2680  1  0.90391150  0.72108850  0.02891150  1
  O  O2681  1  0.90391150  0.72108850  0.27891150  1
  O  O2682  1  0.90391150  0.72108850  0.52891150  1
  O  O2683  1  0.90391150  0.72108850  0.77891150  1
  O  O2684  1  0.90391150  0.97108850  0.02891150  1
  O  O2685  1  0.90391150  0.97108850  0.27891150  1
  O  O2686  1  0.90391150  0.97108850  0.52891150  1
  O  O2687  1  0.90391150  0.97108850  0.77891150  1
  O  O2688  1  0.08933400  0.09374100  0.21230275  1
  O  O2689  1  0.08933400  0.09374100  0.46230275  1
  O  O2690  1  0.08933400  0.09374100  0.71230275  1
  O  O2691  1  0.08933400  0.09374100  0.96230275  1
  O  O2692  1  0.08933400  0.34374100  0.21230275  1
  O  O2693  1  0.08933400  0.34374100  0.46230275  1
  O  O2694  1  0.08933400  0.34374100  0.71230275  1
  O  O2695  1  0.08933400  0.34374100  0.96230275  1
  O  O2696  1  0.08933400  0.59374100  0.21230275  1
  O  O2697  1  0.08933400  0.59374100  0.46230275  1
  O  O2698  1  0.08933400  0.59374100  0.71230275  1
  O  O2699  1  0.08933400  0.59374100  0.96230275  1
  O  O2700  1  0.08933400  0.84374100  0.21230275  1
  O  O2701  1  0.08933400  0.84374100  0.46230275  1
  O  O2702  1  0.08933400  0.84374100  0.71230275  1
  O  O2703  1  0.08933400  0.84374100  0.96230275  1
  O  O2704  1  0.33933400  0.09374100  0.21230275  1
  O  O2705  1  0.33933400  0.09374100  0.46230275  1
  O  O2706  1  0.33933400  0.09374100  0.71230275  1
  O  O2707  1  0.33933400  0.09374100  0.96230275  1
  O  O2708  1  0.33933400  0.34374100  0.21230275  1
  O  O2709  1  0.33933400  0.34374100  0.46230275  1
  O  O2710  1  0.33933400  0.34374100  0.71230275  1
  O  O2711  1  0.33933400  0.34374100  0.96230275  1
  O  O2712  1  0.33933400  0.59374100  0.21230275  1
  O  O2713  1  0.33933400  0.59374100  0.46230275  1
  O  O2714  1  0.33933400  0.59374100  0.71230275  1
  O  O2715  1  0.33933400  0.59374100  0.96230275  1
  O  O2716  1  0.33933400  0.84374100  0.21230275  1
  O  O2717  1  0.33933400  0.84374100  0.46230275  1
  O  O2718  1  0.33933400  0.84374100  0.71230275  1
  O  O2719  1  0.33933400  0.84374100  0.96230275  1
  O  O2720  1  0.58933400  0.09374100  0.21230275  1
  O  O2721  1  0.58933400  0.09374100  0.46230275  1
  O  O2722  1  0.58933400  0.09374100  0.71230275  1
  O  O2723  1  0.58933400  0.09374100  0.96230275  1
  O  O2724  1  0.58933400  0.34374100  0.21230275  1
  O  O2725  1  0.58933400  0.34374100  0.46230275  1
  O  O2726  1  0.58933400  0.34374100  0.71230275  1
  O  O2727  1  0.58933400  0.34374100  0.96230275  1
  O  O2728  1  0.58933400  0.59374100  0.21230275  1
  O  O2729  1  0.58933400  0.59374100  0.46230275  1
  O  O2730  1  0.58933400  0.59374100  0.71230275  1
  O  O2731  1  0.58933400  0.59374100  0.96230275  1
  O  O2732  1  0.58933400  0.84374100  0.21230275  1
  O  O2733  1  0.58933400  0.84374100  0.46230275  1
  O  O2734  1  0.58933400  0.84374100  0.71230275  1
  O  O2735  1  0.58933400  0.84374100  0.96230275  1
  O  O2736  1  0.83933400  0.09374100  0.21230275  1
  O  O2737  1  0.83933400  0.09374100  0.46230275  1
  O  O2738  1  0.83933400  0.09374100  0.71230275  1
  O  O2739  1  0.83933400  0.09374100  0.96230275  1
  O  O2740  1  0.83933400  0.34374100  0.21230275  1
  O  O2741  1  0.83933400  0.34374100  0.46230275  1
  O  O2742  1  0.83933400  0.34374100  0.71230275  1
  O  O2743  1  0.83933400  0.34374100  0.96230275  1
  O  O2744  1  0.83933400  0.59374100  0.21230275  1
  O  O2745  1  0.83933400  0.59374100  0.46230275  1
  O  O2746  1  0.83933400  0.59374100  0.71230275  1
  O  O2747  1  0.83933400  0.59374100  0.96230275  1
  O  O2748  1  0.83933400  0.84374100  0.21230275  1
  O  O2749  1  0.83933400  0.84374100  0.46230275  1
  O  O2750  1  0.83933400  0.84374100  0.71230275  1
  O  O2751  1  0.83933400  0.84374100  0.96230275  1
  O  O2752  1  0.21874100  0.16269725  0.16066600  1
  O  O2753  1  0.21874100  0.16269725  0.41066600  1
  O  O2754  1  0.21874100  0.16269725  0.66066600  1
  O  O2755  1  0.21874100  0.16269725  0.91066600  1
  O  O2756  1  0.21874100  0.41269725  0.16066600  1
  O  O2757  1  0.21874100  0.41269725  0.41066600  1
  O  O2758  1  0.21874100  0.41269725  0.66066600  1
  O  O2759  1  0.21874100  0.41269725  0.91066600  1
  O  O2760  1  0.21874100  0.66269725  0.16066600  1
  O  O2761  1  0.21874100  0.66269725  0.41066600  1
  O  O2762  1  0.21874100  0.66269725  0.66066600  1
  O  O2763  1  0.21874100  0.66269725  0.91066600  1
  O  O2764  1  0.21874100  0.91269725  0.16066600  1
  O  O2765  1  0.21874100  0.91269725  0.41066600  1
  O  O2766  1  0.21874100  0.91269725  0.66066600  1
  O  O2767  1  0.21874100  0.91269725  0.91066600  1
  O  O2768  1  0.46874100  0.16269725  0.16066600  1
  O  O2769  1  0.46874100  0.16269725  0.41066600  1
  O  O2770  1  0.46874100  0.16269725  0.66066600  1
  O  O2771  1  0.46874100  0.16269725  0.91066600  1
  O  O2772  1  0.46874100  0.41269725  0.16066600  1
  O  O2773  1  0.46874100  0.41269725  0.41066600  1
  O  O2774  1  0.46874100  0.41269725  0.66066600  1
  O  O2775  1  0.46874100  0.41269725  0.91066600  1
  O  O2776  1  0.46874100  0.66269725  0.16066600  1
  O  O2777  1  0.46874100  0.66269725  0.41066600  1
  O  O2778  1  0.46874100  0.66269725  0.66066600  1
  O  O2779  1  0.46874100  0.66269725  0.91066600  1
  O  O2780  1  0.46874100  0.91269725  0.16066600  1
  O  O2781  1  0.46874100  0.91269725  0.41066600  1
  O  O2782  1  0.46874100  0.91269725  0.66066600  1
  O  O2783  1  0.46874100  0.91269725  0.91066600  1
  O  O2784  1  0.71874100  0.16269725  0.16066600  1
  O  O2785  1  0.71874100  0.16269725  0.41066600  1
  O  O2786  1  0.71874100  0.16269725  0.66066600  1
  O  O2787  1  0.71874100  0.16269725  0.91066600  1
  O  O2788  1  0.71874100  0.41269725  0.16066600  1
  O  O2789  1  0.71874100  0.41269725  0.41066600  1
  O  O2790  1  0.71874100  0.41269725  0.66066600  1
  O  O2791  1  0.71874100  0.41269725  0.91066600  1
  O  O2792  1  0.71874100  0.66269725  0.16066600  1
  O  O2793  1  0.71874100  0.66269725  0.41066600  1
  O  O2794  1  0.71874100  0.66269725  0.66066600  1
  O  O2795  1  0.71874100  0.66269725  0.91066600  1
  O  O2796  1  0.71874100  0.91269725  0.16066600  1
  O  O2797  1  0.71874100  0.91269725  0.41066600  1
  O  O2798  1  0.71874100  0.91269725  0.66066600  1
  O  O2799  1  0.71874100  0.91269725  0.91066600  1
  O  O2800  1  0.96874100  0.16269725  0.16066600  1
  O  O2801  1  0.96874100  0.16269725  0.41066600  1
  O  O2802  1  0.96874100  0.16269725  0.66066600  1
  O  O2803  1  0.96874100  0.16269725  0.91066600  1
  O  O2804  1  0.96874100  0.41269725  0.16066600  1
  O  O2805  1  0.96874100  0.41269725  0.41066600  1
  O  O2806  1  0.96874100  0.41269725  0.66066600  1
  O  O2807  1  0.96874100  0.41269725  0.91066600  1
  O  O2808  1  0.96874100  0.66269725  0.16066600  1
  O  O2809  1  0.96874100  0.66269725  0.41066600  1
  O  O2810  1  0.96874100  0.66269725  0.66066600  1
  O  O2811  1  0.96874100  0.66269725  0.91066600  1
  O  O2812  1  0.96874100  0.91269725  0.16066600  1
  O  O2813  1  0.96874100  0.91269725  0.41066600  1
  O  O2814  1  0.96874100  0.91269725  0.66066600  1
  O  O2815  1  0.96874100  0.91269725  0.91066600  1
  O  O2816  1  0.15625900  0.08730275  0.03566600  1
  O  O2817  1  0.15625900  0.08730275  0.28566600  1
  O  O2818  1  0.15625900  0.08730275  0.53566600  1
  O  O2819  1  0.15625900  0.08730275  0.78566600  1
  O  O2820  1  0.15625900  0.33730275  0.03566600  1
  O  O2821  1  0.15625900  0.33730275  0.28566600  1
  O  O2822  1  0.15625900  0.33730275  0.53566600  1
  O  O2823  1  0.15625900  0.33730275  0.78566600  1
  O  O2824  1  0.15625900  0.58730275  0.03566600  1
  O  O2825  1  0.15625900  0.58730275  0.28566600  1
  O  O2826  1  0.15625900  0.58730275  0.53566600  1
  O  O2827  1  0.15625900  0.58730275  0.78566600  1
  O  O2828  1  0.15625900  0.83730275  0.03566600  1
  O  O2829  1  0.15625900  0.83730275  0.28566600  1
  O  O2830  1  0.15625900  0.83730275  0.53566600  1
  O  O2831  1  0.15625900  0.83730275  0.78566600  1
  O  O2832  1  0.40625900  0.08730275  0.03566600  1
  O  O2833  1  0.40625900  0.08730275  0.28566600  1
  O  O2834  1  0.40625900  0.08730275  0.53566600  1
  O  O2835  1  0.40625900  0.08730275  0.78566600  1
  O  O2836  1  0.40625900  0.33730275  0.03566600  1
  O  O2837  1  0.40625900  0.33730275  0.28566600  1
  O  O2838  1  0.40625900  0.33730275  0.53566600  1
  O  O2839  1  0.40625900  0.33730275  0.78566600  1
  O  O2840  1  0.40625900  0.58730275  0.03566600  1
  O  O2841  1  0.40625900  0.58730275  0.28566600  1
  O  O2842  1  0.40625900  0.58730275  0.53566600  1
  O  O2843  1  0.40625900  0.58730275  0.78566600  1
  O  O2844  1  0.40625900  0.83730275  0.03566600  1
  O  O2845  1  0.40625900  0.83730275  0.28566600  1
  O  O2846  1  0.40625900  0.83730275  0.53566600  1
  O  O2847  1  0.40625900  0.83730275  0.78566600  1
  O  O2848  1  0.65625900  0.08730275  0.03566600  1
  O  O2849  1  0.65625900  0.08730275  0.28566600  1
  O  O2850  1  0.65625900  0.08730275  0.53566600  1
  O  O2851  1  0.65625900  0.08730275  0.78566600  1
  O  O2852  1  0.65625900  0.33730275  0.03566600  1
  O  O2853  1  0.65625900  0.33730275  0.28566600  1
  O  O2854  1  0.65625900  0.33730275  0.53566600  1
  O  O2855  1  0.65625900  0.33730275  0.78566600  1
  O  O2856  1  0.65625900  0.58730275  0.03566600  1
  O  O2857  1  0.65625900  0.58730275  0.28566600  1
  O  O2858  1  0.65625900  0.58730275  0.53566600  1
  O  O2859  1  0.65625900  0.58730275  0.78566600  1
  O  O2860  1  0.65625900  0.83730275  0.03566600  1
  O  O2861  1  0.65625900  0.83730275  0.28566600  1
  O  O2862  1  0.65625900  0.83730275  0.53566600  1
  O  O2863  1  0.65625900  0.83730275  0.78566600  1
  O  O2864  1  0.90625900  0.08730275  0.03566600  1
  O  O2865  1  0.90625900  0.08730275  0.28566600  1
  O  O2866  1  0.90625900  0.08730275  0.53566600  1
  O  O2867  1  0.90625900  0.08730275  0.78566600  1
  O  O2868  1  0.90625900  0.33730275  0.03566600  1
  O  O2869  1  0.90625900  0.33730275  0.28566600  1
  O  O2870  1  0.90625900  0.33730275  0.53566600  1
  O  O2871  1  0.90625900  0.33730275  0.78566600  1
  O  O2872  1  0.90625900  0.58730275  0.03566600  1
  O  O2873  1  0.90625900  0.58730275  0.28566600  1
  O  O2874  1  0.90625900  0.58730275  0.53566600  1
  O  O2875  1  0.90625900  0.58730275  0.78566600  1
  O  O2876  1  0.90625900  0.83730275  0.03566600  1
  O  O2877  1  0.90625900  0.83730275  0.28566600  1
  O  O2878  1  0.90625900  0.83730275  0.53566600  1
  O  O2879  1  0.90625900  0.83730275  0.78566600  1
  O  O2880  1  0.15858850  0.03358850  0.09141150  1
  O  O2881  1  0.15858850  0.03358850  0.34141150  1
  O  O2882  1  0.15858850  0.03358850  0.59141150  1
  O  O2883  1  0.15858850  0.03358850  0.84141150  1
  O  O2884  1  0.15858850  0.28358850  0.09141150  1
  O  O2885  1  0.15858850  0.28358850  0.34141150  1
  O  O2886  1  0.15858850  0.28358850  0.59141150  1
  O  O2887  1  0.15858850  0.28358850  0.84141150  1
  O  O2888  1  0.15858850  0.53358850  0.09141150  1
  O  O2889  1  0.15858850  0.53358850  0.34141150  1
  O  O2890  1  0.15858850  0.53358850  0.59141150  1
  O  O2891  1  0.15858850  0.53358850  0.84141150  1
  O  O2892  1  0.15858850  0.78358850  0.09141150  1
  O  O2893  1  0.15858850  0.78358850  0.34141150  1
  O  O2894  1  0.15858850  0.78358850  0.59141150  1
  O  O2895  1  0.15858850  0.78358850  0.84141150  1
  O  O2896  1  0.40858850  0.03358850  0.09141150  1
  O  O2897  1  0.40858850  0.03358850  0.34141150  1
  O  O2898  1  0.40858850  0.03358850  0.59141150  1
  O  O2899  1  0.40858850  0.03358850  0.84141150  1
  O  O2900  1  0.40858850  0.28358850  0.09141150  1
  O  O2901  1  0.40858850  0.28358850  0.34141150  1
  O  O2902  1  0.40858850  0.28358850  0.59141150  1
  O  O2903  1  0.40858850  0.28358850  0.84141150  1
  O  O2904  1  0.40858850  0.53358850  0.09141150  1
  O  O2905  1  0.40858850  0.53358850  0.34141150  1
  O  O2906  1  0.40858850  0.53358850  0.59141150  1
  O  O2907  1  0.40858850  0.53358850  0.84141150  1
  O  O2908  1  0.40858850  0.78358850  0.09141150  1
  O  O2909  1  0.40858850  0.78358850  0.34141150  1
  O  O2910  1  0.40858850  0.78358850  0.59141150  1
  O  O2911  1  0.40858850  0.78358850  0.84141150  1
  O  O2912  1  0.65858850  0.03358850  0.09141150  1
  O  O2913  1  0.65858850  0.03358850  0.34141150  1
  O  O2914  1  0.65858850  0.03358850  0.59141150  1
  O  O2915  1  0.65858850  0.03358850  0.84141150  1
  O  O2916  1  0.65858850  0.28358850  0.09141150  1
  O  O2917  1  0.65858850  0.28358850  0.34141150  1
  O  O2918  1  0.65858850  0.28358850  0.59141150  1
  O  O2919  1  0.65858850  0.28358850  0.84141150  1
  O  O2920  1  0.65858850  0.53358850  0.09141150  1
  O  O2921  1  0.65858850  0.53358850  0.34141150  1
  O  O2922  1  0.65858850  0.53358850  0.59141150  1
  O  O2923  1  0.65858850  0.53358850  0.84141150  1
  O  O2924  1  0.65858850  0.78358850  0.09141150  1
  O  O2925  1  0.65858850  0.78358850  0.34141150  1
  O  O2926  1  0.65858850  0.78358850  0.59141150  1
  O  O2927  1  0.65858850  0.78358850  0.84141150  1
  O  O2928  1  0.90858850  0.03358850  0.09141150  1
  O  O2929  1  0.90858850  0.03358850  0.34141150  1
  O  O2930  1  0.90858850  0.03358850  0.59141150  1
  O  O2931  1  0.90858850  0.03358850  0.84141150  1
  O  O2932  1  0.90858850  0.28358850  0.09141150  1
  O  O2933  1  0.90858850  0.28358850  0.34141150  1
  O  O2934  1  0.90858850  0.28358850  0.59141150  1
  O  O2935  1  0.90858850  0.28358850  0.84141150  1
  O  O2936  1  0.90858850  0.53358850  0.09141150  1
  O  O2937  1  0.90858850  0.53358850  0.34141150  1
  O  O2938  1  0.90858850  0.53358850  0.59141150  1
  O  O2939  1  0.90858850  0.53358850  0.84141150  1
  O  O2940  1  0.90858850  0.78358850  0.09141150  1
  O  O2941  1  0.90858850  0.78358850  0.34141150  1
  O  O2942  1  0.90858850  0.78358850  0.59141150  1
  O  O2943  1  0.90858850  0.78358850  0.84141150  1
  O  O2944  1  0.21230275  0.08933400  0.09374100  1
  O  O2945  1  0.21230275  0.08933400  0.34374100  1
  O  O2946  1  0.21230275  0.08933400  0.59374100  1
  O  O2947  1  0.21230275  0.08933400  0.84374100  1
  O  O2948  1  0.21230275  0.33933400  0.09374100  1
  O  O2949  1  0.21230275  0.33933400  0.34374100  1
  O  O2950  1  0.21230275  0.33933400  0.59374100  1
  O  O2951  1  0.21230275  0.33933400  0.84374100  1
  O  O2952  1  0.21230275  0.58933400  0.09374100  1
  O  O2953  1  0.21230275  0.58933400  0.34374100  1
  O  O2954  1  0.21230275  0.58933400  0.59374100  1
  O  O2955  1  0.21230275  0.58933400  0.84374100  1
  O  O2956  1  0.21230275  0.83933400  0.09374100  1
  O  O2957  1  0.21230275  0.83933400  0.34374100  1
  O  O2958  1  0.21230275  0.83933400  0.59374100  1
  O  O2959  1  0.21230275  0.83933400  0.84374100  1
  O  O2960  1  0.46230275  0.08933400  0.09374100  1
  O  O2961  1  0.46230275  0.08933400  0.34374100  1
  O  O2962  1  0.46230275  0.08933400  0.59374100  1
  O  O2963  1  0.46230275  0.08933400  0.84374100  1
  O  O2964  1  0.46230275  0.33933400  0.09374100  1
  O  O2965  1  0.46230275  0.33933400  0.34374100  1
  O  O2966  1  0.46230275  0.33933400  0.59374100  1
  O  O2967  1  0.46230275  0.33933400  0.84374100  1
  O  O2968  1  0.46230275  0.58933400  0.09374100  1
  O  O2969  1  0.46230275  0.58933400  0.34374100  1
  O  O2970  1  0.46230275  0.58933400  0.59374100  1
  O  O2971  1  0.46230275  0.58933400  0.84374100  1
  O  O2972  1  0.46230275  0.83933400  0.09374100  1
  O  O2973  1  0.46230275  0.83933400  0.34374100  1
  O  O2974  1  0.46230275  0.83933400  0.59374100  1
  O  O2975  1  0.46230275  0.83933400  0.84374100  1
  O  O2976  1  0.71230275  0.08933400  0.09374100  1
  O  O2977  1  0.71230275  0.08933400  0.34374100  1
  O  O2978  1  0.71230275  0.08933400  0.59374100  1
  O  O2979  1  0.71230275  0.08933400  0.84374100  1
  O  O2980  1  0.71230275  0.33933400  0.09374100  1
  O  O2981  1  0.71230275  0.33933400  0.34374100  1
  O  O2982  1  0.71230275  0.33933400  0.59374100  1
  O  O2983  1  0.71230275  0.33933400  0.84374100  1
  O  O2984  1  0.71230275  0.58933400  0.09374100  1
  O  O2985  1  0.71230275  0.58933400  0.34374100  1
  O  O2986  1  0.71230275  0.58933400  0.59374100  1
  O  O2987  1  0.71230275  0.58933400  0.84374100  1
  O  O2988  1  0.71230275  0.83933400  0.09374100  1
  O  O2989  1  0.71230275  0.83933400  0.34374100  1
  O  O2990  1  0.71230275  0.83933400  0.59374100  1
  O  O2991  1  0.71230275  0.83933400  0.84374100  1
  O  O2992  1  0.96230275  0.08933400  0.09374100  1
  O  O2993  1  0.96230275  0.08933400  0.34374100  1
  O  O2994  1  0.96230275  0.08933400  0.59374100  1
  O  O2995  1  0.96230275  0.08933400  0.84374100  1
  O  O2996  1  0.96230275  0.33933400  0.09374100  1
  O  O2997  1  0.96230275  0.33933400  0.34374100  1
  O  O2998  1  0.96230275  0.33933400  0.59374100  1
  O  O2999  1  0.96230275  0.33933400  0.84374100  1
  O  O3000  1  0.96230275  0.58933400  0.09374100  1
  O  O3001  1  0.96230275  0.58933400  0.34374100  1
  O  O3002  1  0.96230275  0.58933400  0.59374100  1
  O  O3003  1  0.96230275  0.58933400  0.84374100  1
  O  O3004  1  0.96230275  0.83933400  0.09374100  1
  O  O3005  1  0.96230275  0.83933400  0.34374100  1
  O  O3006  1  0.96230275  0.83933400  0.59374100  1
  O  O3007  1  0.96230275  0.83933400  0.84374100  1
  O  O3008  1  0.22108850  0.02891150  0.15391150  1
  O  O3009  1  0.22108850  0.02891150  0.40391150  1
  O  O3010  1  0.22108850  0.02891150  0.65391150  1
  O  O3011  1  0.22108850  0.02891150  0.90391150  1
  O  O3012  1  0.22108850  0.27891150  0.15391150  1
  O  O3013  1  0.22108850  0.27891150  0.40391150  1
  O  O3014  1  0.22108850  0.27891150  0.65391150  1
  O  O3015  1  0.22108850  0.27891150  0.90391150  1
  O  O3016  1  0.22108850  0.52891150  0.15391150  1
  O  O3017  1  0.22108850  0.52891150  0.40391150  1
  O  O3018  1  0.22108850  0.52891150  0.65391150  1
  O  O3019  1  0.22108850  0.52891150  0.90391150  1
  O  O3020  1  0.22108850  0.77891150  0.15391150  1
  O  O3021  1  0.22108850  0.77891150  0.40391150  1
  O  O3022  1  0.22108850  0.77891150  0.65391150  1
  O  O3023  1  0.22108850  0.77891150  0.90391150  1
  O  O3024  1  0.47108850  0.02891150  0.15391150  1
  O  O3025  1  0.47108850  0.02891150  0.40391150  1
  O  O3026  1  0.47108850  0.02891150  0.65391150  1
  O  O3027  1  0.47108850  0.02891150  0.90391150  1
  O  O3028  1  0.47108850  0.27891150  0.15391150  1
  O  O3029  1  0.47108850  0.27891150  0.40391150  1
  O  O3030  1  0.47108850  0.27891150  0.65391150  1
  O  O3031  1  0.47108850  0.27891150  0.90391150  1
  O  O3032  1  0.47108850  0.52891150  0.15391150  1
  O  O3033  1  0.47108850  0.52891150  0.40391150  1
  O  O3034  1  0.47108850  0.52891150  0.65391150  1
  O  O3035  1  0.47108850  0.52891150  0.90391150  1
  O  O3036  1  0.47108850  0.77891150  0.15391150  1
  O  O3037  1  0.47108850  0.77891150  0.40391150  1
  O  O3038  1  0.47108850  0.77891150  0.65391150  1
  O  O3039  1  0.47108850  0.77891150  0.90391150  1
  O  O3040  1  0.72108850  0.02891150  0.15391150  1
  O  O3041  1  0.72108850  0.02891150  0.40391150  1
  O  O3042  1  0.72108850  0.02891150  0.65391150  1
  O  O3043  1  0.72108850  0.02891150  0.90391150  1
  O  O3044  1  0.72108850  0.27891150  0.15391150  1
  O  O3045  1  0.72108850  0.27891150  0.40391150  1
  O  O3046  1  0.72108850  0.27891150  0.65391150  1
  O  O3047  1  0.72108850  0.27891150  0.90391150  1
  O  O3048  1  0.72108850  0.52891150  0.15391150  1
  O  O3049  1  0.72108850  0.52891150  0.40391150  1
  O  O3050  1  0.72108850  0.52891150  0.65391150  1
  O  O3051  1  0.72108850  0.52891150  0.90391150  1
  O  O3052  1  0.72108850  0.77891150  0.15391150  1
  O  O3053  1  0.72108850  0.77891150  0.40391150  1
  O  O3054  1  0.72108850  0.77891150  0.65391150  1
  O  O3055  1  0.72108850  0.77891150  0.90391150  1
  O  O3056  1  0.97108850  0.02891150  0.15391150  1
  O  O3057  1  0.97108850  0.02891150  0.40391150  1
  O  O3058  1  0.97108850  0.02891150  0.65391150  1
  O  O3059  1  0.97108850  0.02891150  0.90391150  1
  O  O3060  1  0.97108850  0.27891150  0.15391150  1
  O  O3061  1  0.97108850  0.27891150  0.40391150  1
  O  O3062  1  0.97108850  0.27891150  0.65391150  1
  O  O3063  1  0.97108850  0.27891150  0.90391150  1
  O  O3064  1  0.97108850  0.52891150  0.15391150  1
  O  O3065  1  0.97108850  0.52891150  0.40391150  1
  O  O3066  1  0.97108850  0.52891150  0.65391150  1
  O  O3067  1  0.97108850  0.52891150  0.90391150  1
  O  O3068  1  0.97108850  0.77891150  0.15391150  1
  O  O3069  1  0.97108850  0.77891150  0.40391150  1
  O  O3070  1  0.97108850  0.77891150  0.65391150  1
  O  O3071  1  0.97108850  0.77891150  0.90391150  1
  O  O3072  1  0.02891150  0.15391150  0.22108850  1
  O  O3073  1  0.02891150  0.15391150  0.47108850  1
  O  O3074  1  0.02891150  0.15391150  0.72108850  1
  O  O3075  1  0.02891150  0.15391150  0.97108850  1
  O  O3076  1  0.02891150  0.40391150  0.22108850  1
  O  O3077  1  0.02891150  0.40391150  0.47108850  1
  O  O3078  1  0.02891150  0.40391150  0.72108850  1
  O  O3079  1  0.02891150  0.40391150  0.97108850  1
  O  O3080  1  0.02891150  0.65391150  0.22108850  1
  O  O3081  1  0.02891150  0.65391150  0.47108850  1
  O  O3082  1  0.02891150  0.65391150  0.72108850  1
  O  O3083  1  0.02891150  0.65391150  0.97108850  1
  O  O3084  1  0.02891150  0.90391150  0.22108850  1
  O  O3085  1  0.02891150  0.90391150  0.47108850  1
  O  O3086  1  0.02891150  0.90391150  0.72108850  1
  O  O3087  1  0.02891150  0.90391150  0.97108850  1
  O  O3088  1  0.27891150  0.15391150  0.22108850  1
  O  O3089  1  0.27891150  0.15391150  0.47108850  1
  O  O3090  1  0.27891150  0.15391150  0.72108850  1
  O  O3091  1  0.27891150  0.15391150  0.97108850  1
  O  O3092  1  0.27891150  0.40391150  0.22108850  1
  O  O3093  1  0.27891150  0.40391150  0.47108850  1
  O  O3094  1  0.27891150  0.40391150  0.72108850  1
  O  O3095  1  0.27891150  0.40391150  0.97108850  1
  O  O3096  1  0.27891150  0.65391150  0.22108850  1
  O  O3097  1  0.27891150  0.65391150  0.47108850  1
  O  O3098  1  0.27891150  0.65391150  0.72108850  1
  O  O3099  1  0.27891150  0.65391150  0.97108850  1
  O  O3100  1  0.27891150  0.90391150  0.22108850  1
  O  O3101  1  0.27891150  0.90391150  0.47108850  1
  O  O3102  1  0.27891150  0.90391150  0.72108850  1
  O  O3103  1  0.27891150  0.90391150  0.97108850  1
  O  O3104  1  0.52891150  0.15391150  0.22108850  1
  O  O3105  1  0.52891150  0.15391150  0.47108850  1
  O  O3106  1  0.52891150  0.15391150  0.72108850  1
  O  O3107  1  0.52891150  0.15391150  0.97108850  1
  O  O3108  1  0.52891150  0.40391150  0.22108850  1
  O  O3109  1  0.52891150  0.40391150  0.47108850  1
  O  O3110  1  0.52891150  0.40391150  0.72108850  1
  O  O3111  1  0.52891150  0.40391150  0.97108850  1
  O  O3112  1  0.52891150  0.65391150  0.22108850  1
  O  O3113  1  0.52891150  0.65391150  0.47108850  1
  O  O3114  1  0.52891150  0.65391150  0.72108850  1
  O  O3115  1  0.52891150  0.65391150  0.97108850  1
  O  O3116  1  0.52891150  0.90391150  0.22108850  1
  O  O3117  1  0.52891150  0.90391150  0.47108850  1
  O  O3118  1  0.52891150  0.90391150  0.72108850  1
  O  O3119  1  0.52891150  0.90391150  0.97108850  1
  O  O3120  1  0.77891150  0.15391150  0.22108850  1
  O  O3121  1  0.77891150  0.15391150  0.47108850  1
  O  O3122  1  0.77891150  0.15391150  0.72108850  1
  O  O3123  1  0.77891150  0.15391150  0.97108850  1
  O  O3124  1  0.77891150  0.40391150  0.22108850  1
  O  O3125  1  0.77891150  0.40391150  0.47108850  1
  O  O3126  1  0.77891150  0.40391150  0.72108850  1
  O  O3127  1  0.77891150  0.40391150  0.97108850  1
  O  O3128  1  0.77891150  0.65391150  0.22108850  1
  O  O3129  1  0.77891150  0.65391150  0.47108850  1
  O  O3130  1  0.77891150  0.65391150  0.72108850  1
  O  O3131  1  0.77891150  0.65391150  0.97108850  1
  O  O3132  1  0.77891150  0.90391150  0.22108850  1
  O  O3133  1  0.77891150  0.90391150  0.47108850  1
  O  O3134  1  0.77891150  0.90391150  0.72108850  1
  O  O3135  1  0.77891150  0.90391150  0.97108850  1
  O  O3136  1  0.09375900  0.15183400  0.14980275  1
  O  O3137  1  0.09375900  0.15183400  0.39980275  1
  O  O3138  1  0.09375900  0.15183400  0.64980275  1
  O  O3139  1  0.09375900  0.15183400  0.89980275  1
  O  O3140  1  0.09375900  0.40183400  0.14980275  1
  O  O3141  1  0.09375900  0.40183400  0.39980275  1
  O  O3142  1  0.09375900  0.40183400  0.64980275  1
  O  O3143  1  0.09375900  0.40183400  0.89980275  1
  O  O3144  1  0.09375900  0.65183400  0.14980275  1
  O  O3145  1  0.09375900  0.65183400  0.39980275  1
  O  O3146  1  0.09375900  0.65183400  0.64980275  1
  O  O3147  1  0.09375900  0.65183400  0.89980275  1
  O  O3148  1  0.09375900  0.90183400  0.14980275  1
  O  O3149  1  0.09375900  0.90183400  0.39980275  1
  O  O3150  1  0.09375900  0.90183400  0.64980275  1
  O  O3151  1  0.09375900  0.90183400  0.89980275  1
  O  O3152  1  0.34375900  0.15183400  0.14980275  1
  O  O3153  1  0.34375900  0.15183400  0.39980275  1
  O  O3154  1  0.34375900  0.15183400  0.64980275  1
  O  O3155  1  0.34375900  0.15183400  0.89980275  1
  O  O3156  1  0.34375900  0.40183400  0.14980275  1
  O  O3157  1  0.34375900  0.40183400  0.39980275  1
  O  O3158  1  0.34375900  0.40183400  0.64980275  1
  O  O3159  1  0.34375900  0.40183400  0.89980275  1
  O  O3160  1  0.34375900  0.65183400  0.14980275  1
  O  O3161  1  0.34375900  0.65183400  0.39980275  1
  O  O3162  1  0.34375900  0.65183400  0.64980275  1
  O  O3163  1  0.34375900  0.65183400  0.89980275  1
  O  O3164  1  0.34375900  0.90183400  0.14980275  1
  O  O3165  1  0.34375900  0.90183400  0.39980275  1
  O  O3166  1  0.34375900  0.90183400  0.64980275  1
  O  O3167  1  0.34375900  0.90183400  0.89980275  1
  O  O3168  1  0.59375900  0.15183400  0.14980275  1
  O  O3169  1  0.59375900  0.15183400  0.39980275  1
  O  O3170  1  0.59375900  0.15183400  0.64980275  1
  O  O3171  1  0.59375900  0.15183400  0.89980275  1
  O  O3172  1  0.59375900  0.40183400  0.14980275  1
  O  O3173  1  0.59375900  0.40183400  0.39980275  1
  O  O3174  1  0.59375900  0.40183400  0.64980275  1
  O  O3175  1  0.59375900  0.40183400  0.89980275  1
  O  O3176  1  0.59375900  0.65183400  0.14980275  1
  O  O3177  1  0.59375900  0.65183400  0.39980275  1
  O  O3178  1  0.59375900  0.65183400  0.64980275  1
  O  O3179  1  0.59375900  0.65183400  0.89980275  1
  O  O3180  1  0.59375900  0.90183400  0.14980275  1
  O  O3181  1  0.59375900  0.90183400  0.39980275  1
  O  O3182  1  0.59375900  0.90183400  0.64980275  1
  O  O3183  1  0.59375900  0.90183400  0.89980275  1
  O  O3184  1  0.84375900  0.15183400  0.14980275  1
  O  O3185  1  0.84375900  0.15183400  0.39980275  1
  O  O3186  1  0.84375900  0.15183400  0.64980275  1
  O  O3187  1  0.84375900  0.15183400  0.89980275  1
  O  O3188  1  0.84375900  0.40183400  0.14980275  1
  O  O3189  1  0.84375900  0.40183400  0.39980275  1
  O  O3190  1  0.84375900  0.40183400  0.64980275  1
  O  O3191  1  0.84375900  0.40183400  0.89980275  1
  O  O3192  1  0.84375900  0.65183400  0.14980275  1
  O  O3193  1  0.84375900  0.65183400  0.39980275  1
  O  O3194  1  0.84375900  0.65183400  0.64980275  1
  O  O3195  1  0.84375900  0.65183400  0.89980275  1
  O  O3196  1  0.84375900  0.90183400  0.14980275  1
  O  O3197  1  0.84375900  0.90183400  0.39980275  1
  O  O3198  1  0.84375900  0.90183400  0.64980275  1
  O  O3199  1  0.84375900  0.90183400  0.89980275  1
  O  O3200  1  0.02683400  0.22519725  0.15624100  1
  O  O3201  1  0.02683400  0.22519725  0.40624100  1
  O  O3202  1  0.02683400  0.22519725  0.65624100  1
  O  O3203  1  0.02683400  0.22519725  0.90624100  1
  O  O3204  1  0.02683400  0.47519725  0.15624100  1
  O  O3205  1  0.02683400  0.47519725  0.40624100  1
  O  O3206  1  0.02683400  0.47519725  0.65624100  1
  O  O3207  1  0.02683400  0.47519725  0.90624100  1
  O  O3208  1  0.02683400  0.72519725  0.15624100  1
  O  O3209  1  0.02683400  0.72519725  0.40624100  1
  O  O3210  1  0.02683400  0.72519725  0.65624100  1
  O  O3211  1  0.02683400  0.72519725  0.90624100  1
  O  O3212  1  0.02683400  0.97519725  0.15624100  1
  O  O3213  1  0.02683400  0.97519725  0.40624100  1
  O  O3214  1  0.02683400  0.97519725  0.65624100  1
  O  O3215  1  0.02683400  0.97519725  0.90624100  1
  O  O3216  1  0.27683400  0.22519725  0.15624100  1
  O  O3217  1  0.27683400  0.22519725  0.40624100  1
  O  O3218  1  0.27683400  0.22519725  0.65624100  1
  O  O3219  1  0.27683400  0.22519725  0.90624100  1
  O  O3220  1  0.27683400  0.47519725  0.15624100  1
  O  O3221  1  0.27683400  0.47519725  0.40624100  1
  O  O3222  1  0.27683400  0.47519725  0.65624100  1
  O  O3223  1  0.27683400  0.47519725  0.90624100  1
  O  O3224  1  0.27683400  0.72519725  0.15624100  1
  O  O3225  1  0.27683400  0.72519725  0.40624100  1
  O  O3226  1  0.27683400  0.72519725  0.65624100  1
  O  O3227  1  0.27683400  0.72519725  0.90624100  1
  O  O3228  1  0.27683400  0.97519725  0.15624100  1
  O  O3229  1  0.27683400  0.97519725  0.40624100  1
  O  O3230  1  0.27683400  0.97519725  0.65624100  1
  O  O3231  1  0.27683400  0.97519725  0.90624100  1
  O  O3232  1  0.52683400  0.22519725  0.15624100  1
  O  O3233  1  0.52683400  0.22519725  0.40624100  1
  O  O3234  1  0.52683400  0.22519725  0.65624100  1
  O  O3235  1  0.52683400  0.22519725  0.90624100  1
  O  O3236  1  0.52683400  0.47519725  0.15624100  1
  O  O3237  1  0.52683400  0.47519725  0.40624100  1
  O  O3238  1  0.52683400  0.47519725  0.65624100  1
  O  O3239  1  0.52683400  0.47519725  0.90624100  1
  O  O3240  1  0.52683400  0.72519725  0.15624100  1
  O  O3241  1  0.52683400  0.72519725  0.40624100  1
  O  O3242  1  0.52683400  0.72519725  0.65624100  1
  O  O3243  1  0.52683400  0.72519725  0.90624100  1
  O  O3244  1  0.52683400  0.97519725  0.15624100  1
  O  O3245  1  0.52683400  0.97519725  0.40624100  1
  O  O3246  1  0.52683400  0.97519725  0.65624100  1
  O  O3247  1  0.52683400  0.97519725  0.90624100  1
  O  O3248  1  0.77683400  0.22519725  0.15624100  1
  O  O3249  1  0.77683400  0.22519725  0.40624100  1
  O  O3250  1  0.77683400  0.22519725  0.65624100  1
  O  O3251  1  0.77683400  0.22519725  0.90624100  1
  O  O3252  1  0.77683400  0.47519725  0.15624100  1
  O  O3253  1  0.77683400  0.47519725  0.40624100  1
  O  O3254  1  0.77683400  0.47519725  0.65624100  1
  O  O3255  1  0.77683400  0.47519725  0.90624100  1
  O  O3256  1  0.77683400  0.72519725  0.15624100  1
  O  O3257  1  0.77683400  0.72519725  0.40624100  1
  O  O3258  1  0.77683400  0.72519725  0.65624100  1
  O  O3259  1  0.77683400  0.72519725  0.90624100  1
  O  O3260  1  0.77683400  0.97519725  0.15624100  1
  O  O3261  1  0.77683400  0.97519725  0.40624100  1
  O  O3262  1  0.77683400  0.97519725  0.65624100  1
  O  O3263  1  0.77683400  0.97519725  0.90624100  1
  O  O3264  1  0.08730275  0.03566600  0.15625900  1
  O  O3265  1  0.08730275  0.03566600  0.40625900  1
  O  O3266  1  0.08730275  0.03566600  0.65625900  1
  O  O3267  1  0.08730275  0.03566600  0.90625900  1
  O  O3268  1  0.08730275  0.28566600  0.15625900  1
  O  O3269  1  0.08730275  0.28566600  0.40625900  1
  O  O3270  1  0.08730275  0.28566600  0.65625900  1
  O  O3271  1  0.08730275  0.28566600  0.90625900  1
  O  O3272  1  0.08730275  0.53566600  0.15625900  1
  O  O3273  1  0.08730275  0.53566600  0.40625900  1
  O  O3274  1  0.08730275  0.53566600  0.65625900  1
  O  O3275  1  0.08730275  0.53566600  0.90625900  1
  O  O3276  1  0.08730275  0.78566600  0.15625900  1
  O  O3277  1  0.08730275  0.78566600  0.40625900  1
  O  O3278  1  0.08730275  0.78566600  0.65625900  1
  O  O3279  1  0.08730275  0.78566600  0.90625900  1
  O  O3280  1  0.33730275  0.03566600  0.15625900  1
  O  O3281  1  0.33730275  0.03566600  0.40625900  1
  O  O3282  1  0.33730275  0.03566600  0.65625900  1
  O  O3283  1  0.33730275  0.03566600  0.90625900  1
  O  O3284  1  0.33730275  0.28566600  0.15625900  1
  O  O3285  1  0.33730275  0.28566600  0.40625900  1
  O  O3286  1  0.33730275  0.28566600  0.65625900  1
  O  O3287  1  0.33730275  0.28566600  0.90625900  1
  O  O3288  1  0.33730275  0.53566600  0.15625900  1
  O  O3289  1  0.33730275  0.53566600  0.40625900  1
  O  O3290  1  0.33730275  0.53566600  0.65625900  1
  O  O3291  1  0.33730275  0.53566600  0.90625900  1
  O  O3292  1  0.33730275  0.78566600  0.15625900  1
  O  O3293  1  0.33730275  0.78566600  0.40625900  1
  O  O3294  1  0.33730275  0.78566600  0.65625900  1
  O  O3295  1  0.33730275  0.78566600  0.90625900  1
  O  O3296  1  0.58730275  0.03566600  0.15625900  1
  O  O3297  1  0.58730275  0.03566600  0.40625900  1
  O  O3298  1  0.58730275  0.03566600  0.65625900  1
  O  O3299  1  0.58730275  0.03566600  0.90625900  1
  O  O3300  1  0.58730275  0.28566600  0.15625900  1
  O  O3301  1  0.58730275  0.28566600  0.40625900  1
  O  O3302  1  0.58730275  0.28566600  0.65625900  1
  O  O3303  1  0.58730275  0.28566600  0.90625900  1
  O  O3304  1  0.58730275  0.53566600  0.15625900  1
  O  O3305  1  0.58730275  0.53566600  0.40625900  1
  O  O3306  1  0.58730275  0.53566600  0.65625900  1
  O  O3307  1  0.58730275  0.53566600  0.90625900  1
  O  O3308  1  0.58730275  0.78566600  0.15625900  1
  O  O3309  1  0.58730275  0.78566600  0.40625900  1
  O  O3310  1  0.58730275  0.78566600  0.65625900  1
  O  O3311  1  0.58730275  0.78566600  0.90625900  1
  O  O3312  1  0.83730275  0.03566600  0.15625900  1
  O  O3313  1  0.83730275  0.03566600  0.40625900  1
  O  O3314  1  0.83730275  0.03566600  0.65625900  1
  O  O3315  1  0.83730275  0.03566600  0.90625900  1
  O  O3316  1  0.83730275  0.28566600  0.15625900  1
  O  O3317  1  0.83730275  0.28566600  0.40625900  1
  O  O3318  1  0.83730275  0.28566600  0.65625900  1
  O  O3319  1  0.83730275  0.28566600  0.90625900  1
  O  O3320  1  0.83730275  0.53566600  0.15625900  1
  O  O3321  1  0.83730275  0.53566600  0.40625900  1
  O  O3322  1  0.83730275  0.53566600  0.65625900  1
  O  O3323  1  0.83730275  0.53566600  0.90625900  1
  O  O3324  1  0.83730275  0.78566600  0.15625900  1
  O  O3325  1  0.83730275  0.78566600  0.40625900  1
  O  O3326  1  0.83730275  0.78566600  0.65625900  1
  O  O3327  1  0.83730275  0.78566600  0.90625900  1
  O  O3328  1  0.03358850  0.09141150  0.15858850  1
  O  O3329  1  0.03358850  0.09141150  0.40858850  1
  O  O3330  1  0.03358850  0.09141150  0.65858850  1
  O  O3331  1  0.03358850  0.09141150  0.90858850  1
  O  O3332  1  0.03358850  0.34141150  0.15858850  1
  O  O3333  1  0.03358850  0.34141150  0.40858850  1
  O  O3334  1  0.03358850  0.34141150  0.65858850  1
  O  O3335  1  0.03358850  0.34141150  0.90858850  1
  O  O3336  1  0.03358850  0.59141150  0.15858850  1
  O  O3337  1  0.03358850  0.59141150  0.40858850  1
  O  O3338  1  0.03358850  0.59141150  0.65858850  1
  O  O3339  1  0.03358850  0.59141150  0.90858850  1
  O  O3340  1  0.03358850  0.84141150  0.15858850  1
  O  O3341  1  0.03358850  0.84141150  0.40858850  1
  O  O3342  1  0.03358850  0.84141150  0.65858850  1
  O  O3343  1  0.03358850  0.84141150  0.90858850  1
  O  O3344  1  0.28358850  0.09141150  0.15858850  1
  O  O3345  1  0.28358850  0.09141150  0.40858850  1
  O  O3346  1  0.28358850  0.09141150  0.65858850  1
  O  O3347  1  0.28358850  0.09141150  0.90858850  1
  O  O3348  1  0.28358850  0.34141150  0.15858850  1
  O  O3349  1  0.28358850  0.34141150  0.40858850  1
  O  O3350  1  0.28358850  0.34141150  0.65858850  1
  O  O3351  1  0.28358850  0.34141150  0.90858850  1
  O  O3352  1  0.28358850  0.59141150  0.15858850  1
  O  O3353  1  0.28358850  0.59141150  0.40858850  1
  O  O3354  1  0.28358850  0.59141150  0.65858850  1
  O  O3355  1  0.28358850  0.59141150  0.90858850  1
  O  O3356  1  0.28358850  0.84141150  0.15858850  1
  O  O3357  1  0.28358850  0.84141150  0.40858850  1
  O  O3358  1  0.28358850  0.84141150  0.65858850  1
  O  O3359  1  0.28358850  0.84141150  0.90858850  1
  O  O3360  1  0.53358850  0.09141150  0.15858850  1
  O  O3361  1  0.53358850  0.09141150  0.40858850  1
  O  O3362  1  0.53358850  0.09141150  0.65858850  1
  O  O3363  1  0.53358850  0.09141150  0.90858850  1
  O  O3364  1  0.53358850  0.34141150  0.15858850  1
  O  O3365  1  0.53358850  0.34141150  0.40858850  1
  O  O3366  1  0.53358850  0.34141150  0.65858850  1
  O  O3367  1  0.53358850  0.34141150  0.90858850  1
  O  O3368  1  0.53358850  0.59141150  0.15858850  1
  O  O3369  1  0.53358850  0.59141150  0.40858850  1
  O  O3370  1  0.53358850  0.59141150  0.65858850  1
  O  O3371  1  0.53358850  0.59141150  0.90858850  1
  O  O3372  1  0.53358850  0.84141150  0.15858850  1
  O  O3373  1  0.53358850  0.84141150  0.40858850  1
  O  O3374  1  0.53358850  0.84141150  0.65858850  1
  O  O3375  1  0.53358850  0.84141150  0.90858850  1
  O  O3376  1  0.78358850  0.09141150  0.15858850  1
  O  O3377  1  0.78358850  0.09141150  0.40858850  1
  O  O3378  1  0.78358850  0.09141150  0.65858850  1
  O  O3379  1  0.78358850  0.09141150  0.90858850  1
  O  O3380  1  0.78358850  0.34141150  0.15858850  1
  O  O3381  1  0.78358850  0.34141150  0.40858850  1
  O  O3382  1  0.78358850  0.34141150  0.65858850  1
  O  O3383  1  0.78358850  0.34141150  0.90858850  1
  O  O3384  1  0.78358850  0.59141150  0.15858850  1
  O  O3385  1  0.78358850  0.59141150  0.40858850  1
  O  O3386  1  0.78358850  0.59141150  0.65858850  1
  O  O3387  1  0.78358850  0.59141150  0.90858850  1
  O  O3388  1  0.78358850  0.84141150  0.15858850  1
  O  O3389  1  0.78358850  0.84141150  0.40858850  1
  O  O3390  1  0.78358850  0.84141150  0.65858850  1
  O  O3391  1  0.78358850  0.84141150  0.90858850  1
  O  O3392  1  0.16066600  0.21874100  0.16269725  1
  O  O3393  1  0.16066600  0.21874100  0.41269725  1
  O  O3394  1  0.16066600  0.21874100  0.66269725  1
  O  O3395  1  0.16066600  0.21874100  0.91269725  1
  O  O3396  1  0.16066600  0.46874100  0.16269725  1
  O  O3397  1  0.16066600  0.46874100  0.41269725  1
  O  O3398  1  0.16066600  0.46874100  0.66269725  1
  O  O3399  1  0.16066600  0.46874100  0.91269725  1
  O  O3400  1  0.16066600  0.71874100  0.16269725  1
  O  O3401  1  0.16066600  0.71874100  0.41269725  1
  O  O3402  1  0.16066600  0.71874100  0.66269725  1
  O  O3403  1  0.16066600  0.71874100  0.91269725  1
  O  O3404  1  0.16066600  0.96874100  0.16269725  1
  O  O3405  1  0.16066600  0.96874100  0.41269725  1
  O  O3406  1  0.16066600  0.96874100  0.66269725  1
  O  O3407  1  0.16066600  0.96874100  0.91269725  1
  O  O3408  1  0.41066600  0.21874100  0.16269725  1
  O  O3409  1  0.41066600  0.21874100  0.41269725  1
  O  O3410  1  0.41066600  0.21874100  0.66269725  1
  O  O3411  1  0.41066600  0.21874100  0.91269725  1
  O  O3412  1  0.41066600  0.46874100  0.16269725  1
  O  O3413  1  0.41066600  0.46874100  0.41269725  1
  O  O3414  1  0.41066600  0.46874100  0.66269725  1
  O  O3415  1  0.41066600  0.46874100  0.91269725  1
  O  O3416  1  0.41066600  0.71874100  0.16269725  1
  O  O3417  1  0.41066600  0.71874100  0.41269725  1
  O  O3418  1  0.41066600  0.71874100  0.66269725  1
  O  O3419  1  0.41066600  0.71874100  0.91269725  1
  O  O3420  1  0.41066600  0.96874100  0.16269725  1
  O  O3421  1  0.41066600  0.96874100  0.41269725  1
  O  O3422  1  0.41066600  0.96874100  0.66269725  1
  O  O3423  1  0.41066600  0.96874100  0.91269725  1
  O  O3424  1  0.66066600  0.21874100  0.16269725  1
  O  O3425  1  0.66066600  0.21874100  0.41269725  1
  O  O3426  1  0.66066600  0.21874100  0.66269725  1
  O  O3427  1  0.66066600  0.21874100  0.91269725  1
  O  O3428  1  0.66066600  0.46874100  0.16269725  1
  O  O3429  1  0.66066600  0.46874100  0.41269725  1
  O  O3430  1  0.66066600  0.46874100  0.66269725  1
  O  O3431  1  0.66066600  0.46874100  0.91269725  1
  O  O3432  1  0.66066600  0.71874100  0.16269725  1
  O  O3433  1  0.66066600  0.71874100  0.41269725  1
  O  O3434  1  0.66066600  0.71874100  0.66269725  1
  O  O3435  1  0.66066600  0.71874100  0.91269725  1
  O  O3436  1  0.66066600  0.96874100  0.16269725  1
  O  O3437  1  0.66066600  0.96874100  0.41269725  1
  O  O3438  1  0.66066600  0.96874100  0.66269725  1
  O  O3439  1  0.66066600  0.96874100  0.91269725  1
  O  O3440  1  0.91066600  0.21874100  0.16269725  1
  O  O3441  1  0.91066600  0.21874100  0.41269725  1
  O  O3442  1  0.91066600  0.21874100  0.66269725  1
  O  O3443  1  0.91066600  0.21874100  0.91269725  1
  O  O3444  1  0.91066600  0.46874100  0.16269725  1
  O  O3445  1  0.91066600  0.46874100  0.41269725  1
  O  O3446  1  0.91066600  0.46874100  0.66269725  1
  O  O3447  1  0.91066600  0.46874100  0.91269725  1
  O  O3448  1  0.91066600  0.71874100  0.16269725  1
  O  O3449  1  0.91066600  0.71874100  0.41269725  1
  O  O3450  1  0.91066600  0.71874100  0.66269725  1
  O  O3451  1  0.91066600  0.71874100  0.91269725  1
  O  O3452  1  0.91066600  0.96874100  0.16269725  1
  O  O3453  1  0.91066600  0.96874100  0.41269725  1
  O  O3454  1  0.91066600  0.96874100  0.66269725  1
  O  O3455  1  0.91066600  0.96874100  0.91269725  1
  O  O3456  1  0.21641150  0.21641150  0.21641150  1
  O  O3457  1  0.21641150  0.21641150  0.46641150  1
  O  O3458  1  0.21641150  0.21641150  0.71641150  1
  O  O3459  1  0.21641150  0.21641150  0.96641150  1
  O  O3460  1  0.21641150  0.46641150  0.21641150  1
  O  O3461  1  0.21641150  0.46641150  0.46641150  1
  O  O3462  1  0.21641150  0.46641150  0.71641150  1
  O  O3463  1  0.21641150  0.46641150  0.96641150  1
  O  O3464  1  0.21641150  0.71641150  0.21641150  1
  O  O3465  1  0.21641150  0.71641150  0.46641150  1
  O  O3466  1  0.21641150  0.71641150  0.71641150  1
  O  O3467  1  0.21641150  0.71641150  0.96641150  1
  O  O3468  1  0.21641150  0.96641150  0.21641150  1
  O  O3469  1  0.21641150  0.96641150  0.46641150  1
  O  O3470  1  0.21641150  0.96641150  0.71641150  1
  O  O3471  1  0.21641150  0.96641150  0.96641150  1
  O  O3472  1  0.46641150  0.21641150  0.21641150  1
  O  O3473  1  0.46641150  0.21641150  0.46641150  1
  O  O3474  1  0.46641150  0.21641150  0.71641150  1
  O  O3475  1  0.46641150  0.21641150  0.96641150  1
  O  O3476  1  0.46641150  0.46641150  0.21641150  1
  O  O3477  1  0.46641150  0.46641150  0.46641150  1
  O  O3478  1  0.46641150  0.46641150  0.71641150  1
  O  O3479  1  0.46641150  0.46641150  0.96641150  1
  O  O3480  1  0.46641150  0.71641150  0.21641150  1
  O  O3481  1  0.46641150  0.71641150  0.46641150  1
  O  O3482  1  0.46641150  0.71641150  0.71641150  1
  O  O3483  1  0.46641150  0.71641150  0.96641150  1
  O  O3484  1  0.46641150  0.96641150  0.21641150  1
  O  O3485  1  0.46641150  0.96641150  0.46641150  1
  O  O3486  1  0.46641150  0.96641150  0.71641150  1
  O  O3487  1  0.46641150  0.96641150  0.96641150  1
  O  O3488  1  0.71641150  0.21641150  0.21641150  1
  O  O3489  1  0.71641150  0.21641150  0.46641150  1
  O  O3490  1  0.71641150  0.21641150  0.71641150  1
  O  O3491  1  0.71641150  0.21641150  0.96641150  1
  O  O3492  1  0.71641150  0.46641150  0.21641150  1
  O  O3493  1  0.71641150  0.46641150  0.46641150  1
  O  O3494  1  0.71641150  0.46641150  0.71641150  1
  O  O3495  1  0.71641150  0.46641150  0.96641150  1
  O  O3496  1  0.71641150  0.71641150  0.21641150  1
  O  O3497  1  0.71641150  0.71641150  0.46641150  1
  O  O3498  1  0.71641150  0.71641150  0.71641150  1
  O  O3499  1  0.71641150  0.71641150  0.96641150  1
  O  O3500  1  0.71641150  0.96641150  0.21641150  1
  O  O3501  1  0.71641150  0.96641150  0.46641150  1
  O  O3502  1  0.71641150  0.96641150  0.71641150  1
  O  O3503  1  0.71641150  0.96641150  0.96641150  1
  O  O3504  1  0.96641150  0.21641150  0.21641150  1
  O  O3505  1  0.96641150  0.21641150  0.46641150  1
  O  O3506  1  0.96641150  0.21641150  0.71641150  1
  O  O3507  1  0.96641150  0.21641150  0.96641150  1
  O  O3508  1  0.96641150  0.46641150  0.21641150  1
  O  O3509  1  0.96641150  0.46641150  0.46641150  1
  O  O3510  1  0.96641150  0.46641150  0.71641150  1
  O  O3511  1  0.96641150  0.46641150  0.96641150  1
  O  O3512  1  0.96641150  0.71641150  0.21641150  1
  O  O3513  1  0.96641150  0.71641150  0.46641150  1
  O  O3514  1  0.96641150  0.71641150  0.71641150  1
  O  O3515  1  0.96641150  0.71641150  0.96641150  1
  O  O3516  1  0.96641150  0.96641150  0.21641150  1
  O  O3517  1  0.96641150  0.96641150  0.46641150  1
  O  O3518  1  0.96641150  0.96641150  0.71641150  1
  O  O3519  1  0.96641150  0.96641150  0.96641150  1
  O  O3520  1  0.03125900  0.03769725  0.21433400  1
  O  O3521  1  0.03125900  0.03769725  0.46433400  1
  O  O3522  1  0.03125900  0.03769725  0.71433400  1
  O  O3523  1  0.03125900  0.03769725  0.96433400  1
  O  O3524  1  0.03125900  0.28769725  0.21433400  1
  O  O3525  1  0.03125900  0.28769725  0.46433400  1
  O  O3526  1  0.03125900  0.28769725  0.71433400  1
  O  O3527  1  0.03125900  0.28769725  0.96433400  1
  O  O3528  1  0.03125900  0.53769725  0.21433400  1
  O  O3529  1  0.03125900  0.53769725  0.46433400  1
  O  O3530  1  0.03125900  0.53769725  0.71433400  1
  O  O3531  1  0.03125900  0.53769725  0.96433400  1
  O  O3532  1  0.03125900  0.78769725  0.21433400  1
  O  O3533  1  0.03125900  0.78769725  0.46433400  1
  O  O3534  1  0.03125900  0.78769725  0.71433400  1
  O  O3535  1  0.03125900  0.78769725  0.96433400  1
  O  O3536  1  0.28125900  0.03769725  0.21433400  1
  O  O3537  1  0.28125900  0.03769725  0.46433400  1
  O  O3538  1  0.28125900  0.03769725  0.71433400  1
  O  O3539  1  0.28125900  0.03769725  0.96433400  1
  O  O3540  1  0.28125900  0.28769725  0.21433400  1
  O  O3541  1  0.28125900  0.28769725  0.46433400  1
  O  O3542  1  0.28125900  0.28769725  0.71433400  1
  O  O3543  1  0.28125900  0.28769725  0.96433400  1
  O  O3544  1  0.28125900  0.53769725  0.21433400  1
  O  O3545  1  0.28125900  0.53769725  0.46433400  1
  O  O3546  1  0.28125900  0.53769725  0.71433400  1
  O  O3547  1  0.28125900  0.53769725  0.96433400  1
  O  O3548  1  0.28125900  0.78769725  0.21433400  1
  O  O3549  1  0.28125900  0.78769725  0.46433400  1
  O  O3550  1  0.28125900  0.78769725  0.71433400  1
  O  O3551  1  0.28125900  0.78769725  0.96433400  1
  O  O3552  1  0.53125900  0.03769725  0.21433400  1
  O  O3553  1  0.53125900  0.03769725  0.46433400  1
  O  O3554  1  0.53125900  0.03769725  0.71433400  1
  O  O3555  1  0.53125900  0.03769725  0.96433400  1
  O  O3556  1  0.53125900  0.28769725  0.21433400  1
  O  O3557  1  0.53125900  0.28769725  0.46433400  1
  O  O3558  1  0.53125900  0.28769725  0.71433400  1
  O  O3559  1  0.53125900  0.28769725  0.96433400  1
  O  O3560  1  0.53125900  0.53769725  0.21433400  1
  O  O3561  1  0.53125900  0.53769725  0.46433400  1
  O  O3562  1  0.53125900  0.53769725  0.71433400  1
  O  O3563  1  0.53125900  0.53769725  0.96433400  1
  O  O3564  1  0.53125900  0.78769725  0.21433400  1
  O  O3565  1  0.53125900  0.78769725  0.46433400  1
  O  O3566  1  0.53125900  0.78769725  0.71433400  1
  O  O3567  1  0.53125900  0.78769725  0.96433400  1
  O  O3568  1  0.78125900  0.03769725  0.21433400  1
  O  O3569  1  0.78125900  0.03769725  0.46433400  1
  O  O3570  1  0.78125900  0.03769725  0.71433400  1
  O  O3571  1  0.78125900  0.03769725  0.96433400  1
  O  O3572  1  0.78125900  0.28769725  0.21433400  1
  O  O3573  1  0.78125900  0.28769725  0.46433400  1
  O  O3574  1  0.78125900  0.28769725  0.71433400  1
  O  O3575  1  0.78125900  0.28769725  0.96433400  1
  O  O3576  1  0.78125900  0.53769725  0.21433400  1
  O  O3577  1  0.78125900  0.53769725  0.46433400  1
  O  O3578  1  0.78125900  0.53769725  0.71433400  1
  O  O3579  1  0.78125900  0.53769725  0.96433400  1
  O  O3580  1  0.78125900  0.78769725  0.21433400  1
  O  O3581  1  0.78125900  0.78769725  0.46433400  1
  O  O3582  1  0.78125900  0.78769725  0.71433400  1
  O  O3583  1  0.78125900  0.78769725  0.96433400  1
