# generated using pymatgen
data_Li2B3O4F3
_symmetry_space_group_name_H-M   'P 1'
_cell_length_a   19.20704988
_cell_length_b   34.96119724
_cell_length_c   49.13031972
_cell_angle_alpha   90.00000000
_cell_angle_beta   90.00000000
_cell_angle_gamma   90.00000000
_symmetry_Int_Tables_number   1
_chemical_formula_structural   Li2B3O4F3
_chemical_formula_sum   'Li512 B768 O1024 F768'
_cell_volume   32991.08138556
_cell_formula_units_Z   256
loop_
 _symmetry_equiv_pos_site_id
 _symmetry_equiv_pos_as_xyz
  1  'x, y, z'
loop_
 _atom_site_type_symbol
 _atom_site_label
 _atom_site_symmetry_multiplicity
 _atom_site_fract_x
 _atom_site_fract_y
 _atom_site_fract_z
 _atom_site_occupancy
  Li  Li0  1  0.14681937  0.03627865  0.02585416  1
  Li  Li1  1  0.14681937  0.03627865  0.27585416  1
  Li  Li2  1  0.14681937  0.03627865  0.52585416  1
  Li  Li3  1  0.14681937  0.03627865  0.77585416  1
  Li  Li4  1  0.14681937  0.28627865  0.02585416  1
  Li  Li5  1  0.14681937  0.28627865  0.27585416  1
  Li  Li6  1  0.14681937  0.28627865  0.52585416  1
  Li  Li7  1  0.14681937  0.28627865  0.77585416  1
  Li  Li8  1  0.14681937  0.53627865  0.02585416  1
  Li  Li9  1  0.14681937  0.53627865  0.27585416  1
  Li  Li10  1  0.14681937  0.53627865  0.52585416  1
  Li  Li11  1  0.14681937  0.53627865  0.77585416  1
  Li  Li12  1  0.14681937  0.78627866  0.02585416  1
  Li  Li13  1  0.14681937  0.78627866  0.27585416  1
  Li  Li14  1  0.14681937  0.78627866  0.52585416  1
  Li  Li15  1  0.14681937  0.78627866  0.77585416  1
  Li  Li16  1  0.39681937  0.03627865  0.02585416  1
  Li  Li17  1  0.39681937  0.03627865  0.27585416  1
  Li  Li18  1  0.39681937  0.03627865  0.52585416  1
  Li  Li19  1  0.39681937  0.03627865  0.77585416  1
  Li  Li20  1  0.39681937  0.28627865  0.02585416  1
  Li  Li21  1  0.39681937  0.28627865  0.27585416  1
  Li  Li22  1  0.39681937  0.28627865  0.52585416  1
  Li  Li23  1  0.39681937  0.28627865  0.77585416  1
  Li  Li24  1  0.39681937  0.53627865  0.02585416  1
  Li  Li25  1  0.39681937  0.53627865  0.27585416  1
  Li  Li26  1  0.39681937  0.53627865  0.52585416  1
  Li  Li27  1  0.39681937  0.53627865  0.77585416  1
  Li  Li28  1  0.39681937  0.78627866  0.02585416  1
  Li  Li29  1  0.39681937  0.78627866  0.27585416  1
  Li  Li30  1  0.39681937  0.78627866  0.52585416  1
  Li  Li31  1  0.39681937  0.78627866  0.77585416  1
  Li  Li32  1  0.64681937  0.03627865  0.02585416  1
  Li  Li33  1  0.64681937  0.03627865  0.27585416  1
  Li  Li34  1  0.64681937  0.03627865  0.52585416  1
  Li  Li35  1  0.64681937  0.03627865  0.77585416  1
  Li  Li36  1  0.64681937  0.28627865  0.02585416  1
  Li  Li37  1  0.64681937  0.28627865  0.27585416  1
  Li  Li38  1  0.64681937  0.28627865  0.52585416  1
  Li  Li39  1  0.64681937  0.28627865  0.77585416  1
  Li  Li40  1  0.64681937  0.53627865  0.02585416  1
  Li  Li41  1  0.64681937  0.53627865  0.27585416  1
  Li  Li42  1  0.64681937  0.53627865  0.52585416  1
  Li  Li43  1  0.64681937  0.53627865  0.77585416  1
  Li  Li44  1  0.64681937  0.78627866  0.02585416  1
  Li  Li45  1  0.64681937  0.78627866  0.27585416  1
  Li  Li46  1  0.64681937  0.78627866  0.52585416  1
  Li  Li47  1  0.64681937  0.78627866  0.77585416  1
  Li  Li48  1  0.89681937  0.03627865  0.02585416  1
  Li  Li49  1  0.89681937  0.03627865  0.27585416  1
  Li  Li50  1  0.89681937  0.03627865  0.52585416  1
  Li  Li51  1  0.89681937  0.03627865  0.77585416  1
  Li  Li52  1  0.89681937  0.28627865  0.02585416  1
  Li  Li53  1  0.89681937  0.28627865  0.27585416  1
  Li  Li54  1  0.89681937  0.28627865  0.52585416  1
  Li  Li55  1  0.89681937  0.28627865  0.77585416  1
  Li  Li56  1  0.89681937  0.53627865  0.02585416  1
  Li  Li57  1  0.89681937  0.53627865  0.27585416  1
  Li  Li58  1  0.89681937  0.53627865  0.52585416  1
  Li  Li59  1  0.89681937  0.53627865  0.77585416  1
  Li  Li60  1  0.89681937  0.78627866  0.02585416  1
  Li  Li61  1  0.89681937  0.78627866  0.27585416  1
  Li  Li62  1  0.89681937  0.78627866  0.52585416  1
  Li  Li63  1  0.89681937  0.78627866  0.77585416  1
  Li  Li64  1  0.22818063  0.21372135  0.15085416  1
  Li  Li65  1  0.22818063  0.21372135  0.40085416  1
  Li  Li66  1  0.22818063  0.21372135  0.65085416  1
  Li  Li67  1  0.22818063  0.21372135  0.90085416  1
  Li  Li68  1  0.22818063  0.46372135  0.15085416  1
  Li  Li69  1  0.22818063  0.46372135  0.40085416  1
  Li  Li70  1  0.22818063  0.46372135  0.65085416  1
  Li  Li71  1  0.22818063  0.46372135  0.90085416  1
  Li  Li72  1  0.22818063  0.71372134  0.15085416  1
  Li  Li73  1  0.22818063  0.71372134  0.40085416  1
  Li  Li74  1  0.22818063  0.71372134  0.65085416  1
  Li  Li75  1  0.22818063  0.71372134  0.90085416  1
  Li  Li76  1  0.22818063  0.96372135  0.15085416  1
  Li  Li77  1  0.22818063  0.96372135  0.40085416  1
  Li  Li78  1  0.22818063  0.96372135  0.65085416  1
  Li  Li79  1  0.22818063  0.96372135  0.90085416  1
  Li  Li80  1  0.47818063  0.21372135  0.15085416  1
  Li  Li81  1  0.47818063  0.21372135  0.40085416  1
  Li  Li82  1  0.47818063  0.21372135  0.65085416  1
  Li  Li83  1  0.47818063  0.21372135  0.90085416  1
  Li  Li84  1  0.47818063  0.46372135  0.15085416  1
  Li  Li85  1  0.47818063  0.46372135  0.40085416  1
  Li  Li86  1  0.47818063  0.46372135  0.65085416  1
  Li  Li87  1  0.47818063  0.46372135  0.90085416  1
  Li  Li88  1  0.47818063  0.71372134  0.15085416  1
  Li  Li89  1  0.47818063  0.71372134  0.40085416  1
  Li  Li90  1  0.47818063  0.71372134  0.65085416  1
  Li  Li91  1  0.47818063  0.71372134  0.90085416  1
  Li  Li92  1  0.47818063  0.96372135  0.15085416  1
  Li  Li93  1  0.47818063  0.96372135  0.40085416  1
  Li  Li94  1  0.47818063  0.96372135  0.65085416  1
  Li  Li95  1  0.47818063  0.96372135  0.90085416  1
  Li  Li96  1  0.72818063  0.21372135  0.15085416  1
  Li  Li97  1  0.72818063  0.21372135  0.40085416  1
  Li  Li98  1  0.72818063  0.21372135  0.65085416  1
  Li  Li99  1  0.72818063  0.21372135  0.90085416  1
  Li  Li100  1  0.72818063  0.46372135  0.15085416  1
  Li  Li101  1  0.72818063  0.46372135  0.40085416  1
  Li  Li102  1  0.72818063  0.46372135  0.65085416  1
  Li  Li103  1  0.72818063  0.46372135  0.90085416  1
  Li  Li104  1  0.72818063  0.71372134  0.15085416  1
  Li  Li105  1  0.72818063  0.71372134  0.40085416  1
  Li  Li106  1  0.72818063  0.71372134  0.65085416  1
  Li  Li107  1  0.72818063  0.71372134  0.90085416  1
  Li  Li108  1  0.72818063  0.96372135  0.15085416  1
  Li  Li109  1  0.72818063  0.96372135  0.40085416  1
  Li  Li110  1  0.72818063  0.96372135  0.65085416  1
  Li  Li111  1  0.72818063  0.96372135  0.90085416  1
  Li  Li112  1  0.97818063  0.21372135  0.15085416  1
  Li  Li113  1  0.97818063  0.21372135  0.40085416  1
  Li  Li114  1  0.97818063  0.21372135  0.65085416  1
  Li  Li115  1  0.97818063  0.21372135  0.90085416  1
  Li  Li116  1  0.97818063  0.46372135  0.15085416  1
  Li  Li117  1  0.97818063  0.46372135  0.40085416  1
  Li  Li118  1  0.97818063  0.46372135  0.65085416  1
  Li  Li119  1  0.97818063  0.46372135  0.90085416  1
  Li  Li120  1  0.97818063  0.71372134  0.15085416  1
  Li  Li121  1  0.97818063  0.71372134  0.40085416  1
  Li  Li122  1  0.97818063  0.71372134  0.65085416  1
  Li  Li123  1  0.97818063  0.71372134  0.90085416  1
  Li  Li124  1  0.97818063  0.96372135  0.15085416  1
  Li  Li125  1  0.97818063  0.96372135  0.40085416  1
  Li  Li126  1  0.97818063  0.96372135  0.65085416  1
  Li  Li127  1  0.97818063  0.96372135  0.90085416  1
  Li  Li128  1  0.02181937  0.08872135  0.22414584  1
  Li  Li129  1  0.02181937  0.08872135  0.47414584  1
  Li  Li130  1  0.02181937  0.08872135  0.72414584  1
  Li  Li131  1  0.02181937  0.08872135  0.97414584  1
  Li  Li132  1  0.02181937  0.33872135  0.22414584  1
  Li  Li133  1  0.02181937  0.33872135  0.47414584  1
  Li  Li134  1  0.02181937  0.33872135  0.72414584  1
  Li  Li135  1  0.02181937  0.33872135  0.97414584  1
  Li  Li136  1  0.02181937  0.58872135  0.22414584  1
  Li  Li137  1  0.02181937  0.58872135  0.47414584  1
  Li  Li138  1  0.02181937  0.58872135  0.72414584  1
  Li  Li139  1  0.02181937  0.58872135  0.97414584  1
  Li  Li140  1  0.02181937  0.83872135  0.22414584  1
  Li  Li141  1  0.02181937  0.83872135  0.47414584  1
  Li  Li142  1  0.02181937  0.83872135  0.72414584  1
  Li  Li143  1  0.02181937  0.83872135  0.97414584  1
  Li  Li144  1  0.27181937  0.08872135  0.22414584  1
  Li  Li145  1  0.27181937  0.08872135  0.47414584  1
  Li  Li146  1  0.27181937  0.08872135  0.72414584  1
  Li  Li147  1  0.27181937  0.08872135  0.97414584  1
  Li  Li148  1  0.27181937  0.33872135  0.22414584  1
  Li  Li149  1  0.27181937  0.33872135  0.47414584  1
  Li  Li150  1  0.27181937  0.33872135  0.72414584  1
  Li  Li151  1  0.27181937  0.33872135  0.97414584  1
  Li  Li152  1  0.27181937  0.58872135  0.22414584  1
  Li  Li153  1  0.27181937  0.58872135  0.47414584  1
  Li  Li154  1  0.27181937  0.58872135  0.72414584  1
  Li  Li155  1  0.27181937  0.58872135  0.97414584  1
  Li  Li156  1  0.27181937  0.83872135  0.22414584  1
  Li  Li157  1  0.27181937  0.83872135  0.47414584  1
  Li  Li158  1  0.27181937  0.83872135  0.72414584  1
  Li  Li159  1  0.27181937  0.83872135  0.97414584  1
  Li  Li160  1  0.52181937  0.08872135  0.22414584  1
  Li  Li161  1  0.52181937  0.08872135  0.47414584  1
  Li  Li162  1  0.52181937  0.08872135  0.72414584  1
  Li  Li163  1  0.52181937  0.08872135  0.97414584  1
  Li  Li164  1  0.52181937  0.33872135  0.22414584  1
  Li  Li165  1  0.52181937  0.33872135  0.47414584  1
  Li  Li166  1  0.52181937  0.33872135  0.72414584  1
  Li  Li167  1  0.52181937  0.33872135  0.97414584  1
  Li  Li168  1  0.52181937  0.58872135  0.22414584  1
  Li  Li169  1  0.52181937  0.58872135  0.47414584  1
  Li  Li170  1  0.52181937  0.58872135  0.72414584  1
  Li  Li171  1  0.52181937  0.58872135  0.97414584  1
  Li  Li172  1  0.52181937  0.83872135  0.22414584  1
  Li  Li173  1  0.52181937  0.83872135  0.47414584  1
  Li  Li174  1  0.52181937  0.83872135  0.72414584  1
  Li  Li175  1  0.52181937  0.83872135  0.97414584  1
  Li  Li176  1  0.77181937  0.08872135  0.22414584  1
  Li  Li177  1  0.77181937  0.08872135  0.47414584  1
  Li  Li178  1  0.77181937  0.08872135  0.72414584  1
  Li  Li179  1  0.77181937  0.08872135  0.97414584  1
  Li  Li180  1  0.77181937  0.33872135  0.22414584  1
  Li  Li181  1  0.77181937  0.33872135  0.47414584  1
  Li  Li182  1  0.77181937  0.33872135  0.72414584  1
  Li  Li183  1  0.77181937  0.33872135  0.97414584  1
  Li  Li184  1  0.77181937  0.58872135  0.22414584  1
  Li  Li185  1  0.77181937  0.58872135  0.47414584  1
  Li  Li186  1  0.77181937  0.58872135  0.72414584  1
  Li  Li187  1  0.77181937  0.58872135  0.97414584  1
  Li  Li188  1  0.77181937  0.83872135  0.22414584  1
  Li  Li189  1  0.77181937  0.83872135  0.47414584  1
  Li  Li190  1  0.77181937  0.83872135  0.72414584  1
  Li  Li191  1  0.77181937  0.83872135  0.97414584  1
  Li  Li192  1  0.10318063  0.16127865  0.09914584  1
  Li  Li193  1  0.10318063  0.16127865  0.34914584  1
  Li  Li194  1  0.10318063  0.16127865  0.59914584  1
  Li  Li195  1  0.10318063  0.16127865  0.84914584  1
  Li  Li196  1  0.10318063  0.41127865  0.09914584  1
  Li  Li197  1  0.10318063  0.41127865  0.34914584  1
  Li  Li198  1  0.10318063  0.41127865  0.59914584  1
  Li  Li199  1  0.10318063  0.41127865  0.84914584  1
  Li  Li200  1  0.10318063  0.66127866  0.09914584  1
  Li  Li201  1  0.10318063  0.66127866  0.34914584  1
  Li  Li202  1  0.10318063  0.66127866  0.59914584  1
  Li  Li203  1  0.10318063  0.66127866  0.84914584  1
  Li  Li204  1  0.10318063  0.91127866  0.09914584  1
  Li  Li205  1  0.10318063  0.91127866  0.34914584  1
  Li  Li206  1  0.10318063  0.91127866  0.59914584  1
  Li  Li207  1  0.10318063  0.91127866  0.84914584  1
  Li  Li208  1  0.35318063  0.16127865  0.09914584  1
  Li  Li209  1  0.35318063  0.16127865  0.34914584  1
  Li  Li210  1  0.35318063  0.16127865  0.59914584  1
  Li  Li211  1  0.35318063  0.16127865  0.84914584  1
  Li  Li212  1  0.35318063  0.41127865  0.09914584  1
  Li  Li213  1  0.35318063  0.41127865  0.34914584  1
  Li  Li214  1  0.35318063  0.41127865  0.59914584  1
  Li  Li215  1  0.35318063  0.41127865  0.84914584  1
  Li  Li216  1  0.35318063  0.66127866  0.09914584  1
  Li  Li217  1  0.35318063  0.66127866  0.34914584  1
  Li  Li218  1  0.35318063  0.66127866  0.59914584  1
  Li  Li219  1  0.35318063  0.66127866  0.84914584  1
  Li  Li220  1  0.35318063  0.91127866  0.09914584  1
  Li  Li221  1  0.35318063  0.91127866  0.34914584  1
  Li  Li222  1  0.35318063  0.91127866  0.59914584  1
  Li  Li223  1  0.35318063  0.91127866  0.84914584  1
  Li  Li224  1  0.60318063  0.16127865  0.09914584  1
  Li  Li225  1  0.60318063  0.16127865  0.34914584  1
  Li  Li226  1  0.60318063  0.16127865  0.59914584  1
  Li  Li227  1  0.60318063  0.16127865  0.84914584  1
  Li  Li228  1  0.60318063  0.41127865  0.09914584  1
  Li  Li229  1  0.60318063  0.41127865  0.34914584  1
  Li  Li230  1  0.60318063  0.41127865  0.59914584  1
  Li  Li231  1  0.60318063  0.41127865  0.84914584  1
  Li  Li232  1  0.60318063  0.66127866  0.09914584  1
  Li  Li233  1  0.60318063  0.66127866  0.34914584  1
  Li  Li234  1  0.60318063  0.66127866  0.59914584  1
  Li  Li235  1  0.60318063  0.66127866  0.84914584  1
  Li  Li236  1  0.60318063  0.91127866  0.09914584  1
  Li  Li237  1  0.60318063  0.91127866  0.34914584  1
  Li  Li238  1  0.60318063  0.91127866  0.59914584  1
  Li  Li239  1  0.60318063  0.91127866  0.84914584  1
  Li  Li240  1  0.85318063  0.16127865  0.09914584  1
  Li  Li241  1  0.85318063  0.16127865  0.34914584  1
  Li  Li242  1  0.85318063  0.16127865  0.59914584  1
  Li  Li243  1  0.85318063  0.16127865  0.84914584  1
  Li  Li244  1  0.85318063  0.41127865  0.09914584  1
  Li  Li245  1  0.85318063  0.41127865  0.34914584  1
  Li  Li246  1  0.85318063  0.41127865  0.59914584  1
  Li  Li247  1  0.85318063  0.41127865  0.84914584  1
  Li  Li248  1  0.85318063  0.66127866  0.09914584  1
  Li  Li249  1  0.85318063  0.66127866  0.34914584  1
  Li  Li250  1  0.85318063  0.66127866  0.59914584  1
  Li  Li251  1  0.85318063  0.66127866  0.84914584  1
  Li  Li252  1  0.85318063  0.91127866  0.09914584  1
  Li  Li253  1  0.85318063  0.91127866  0.34914584  1
  Li  Li254  1  0.85318063  0.91127866  0.59914584  1
  Li  Li255  1  0.85318063  0.91127866  0.84914584  1
  Li  Li256  1  0.08278509  0.17591471  0.23246535  1
  Li  Li257  1  0.08278509  0.17591471  0.48246535  1
  Li  Li258  1  0.08278509  0.17591471  0.73246535  1
  Li  Li259  1  0.08278509  0.17591471  0.98246535  1
  Li  Li260  1  0.08278509  0.42591471  0.23246535  1
  Li  Li261  1  0.08278509  0.42591471  0.48246535  1
  Li  Li262  1  0.08278509  0.42591471  0.73246535  1
  Li  Li263  1  0.08278509  0.42591471  0.98246535  1
  Li  Li264  1  0.08278509  0.67591472  0.23246535  1
  Li  Li265  1  0.08278509  0.67591472  0.48246535  1
  Li  Li266  1  0.08278509  0.67591472  0.73246535  1
  Li  Li267  1  0.08278509  0.67591472  0.98246535  1
  Li  Li268  1  0.08278509  0.92591471  0.23246535  1
  Li  Li269  1  0.08278509  0.92591471  0.48246535  1
  Li  Li270  1  0.08278509  0.92591471  0.73246535  1
  Li  Li271  1  0.08278509  0.92591471  0.98246535  1
  Li  Li272  1  0.33278509  0.17591471  0.23246535  1
  Li  Li273  1  0.33278509  0.17591471  0.48246535  1
  Li  Li274  1  0.33278509  0.17591471  0.73246535  1
  Li  Li275  1  0.33278509  0.17591471  0.98246535  1
  Li  Li276  1  0.33278509  0.42591471  0.23246535  1
  Li  Li277  1  0.33278509  0.42591471  0.48246535  1
  Li  Li278  1  0.33278509  0.42591471  0.73246535  1
  Li  Li279  1  0.33278509  0.42591471  0.98246535  1
  Li  Li280  1  0.33278509  0.67591472  0.23246535  1
  Li  Li281  1  0.33278509  0.67591472  0.48246535  1
  Li  Li282  1  0.33278509  0.67591472  0.73246535  1
  Li  Li283  1  0.33278509  0.67591472  0.98246535  1
  Li  Li284  1  0.33278509  0.92591471  0.23246535  1
  Li  Li285  1  0.33278509  0.92591471  0.48246535  1
  Li  Li286  1  0.33278509  0.92591471  0.73246535  1
  Li  Li287  1  0.33278509  0.92591471  0.98246535  1
  Li  Li288  1  0.58278509  0.17591471  0.23246535  1
  Li  Li289  1  0.58278509  0.17591471  0.48246535  1
  Li  Li290  1  0.58278509  0.17591471  0.73246535  1
  Li  Li291  1  0.58278509  0.17591471  0.98246535  1
  Li  Li292  1  0.58278509  0.42591471  0.23246535  1
  Li  Li293  1  0.58278509  0.42591471  0.48246535  1
  Li  Li294  1  0.58278509  0.42591471  0.73246535  1
  Li  Li295  1  0.58278509  0.42591471  0.98246535  1
  Li  Li296  1  0.58278509  0.67591472  0.23246535  1
  Li  Li297  1  0.58278509  0.67591472  0.48246535  1
  Li  Li298  1  0.58278509  0.67591472  0.73246535  1
  Li  Li299  1  0.58278509  0.67591472  0.98246535  1
  Li  Li300  1  0.58278509  0.92591471  0.23246535  1
  Li  Li301  1  0.58278509  0.92591471  0.48246535  1
  Li  Li302  1  0.58278509  0.92591471  0.73246535  1
  Li  Li303  1  0.58278509  0.92591471  0.98246535  1
  Li  Li304  1  0.83278509  0.17591471  0.23246535  1
  Li  Li305  1  0.83278509  0.17591471  0.48246535  1
  Li  Li306  1  0.83278509  0.17591471  0.73246535  1
  Li  Li307  1  0.83278509  0.17591471  0.98246535  1
  Li  Li308  1  0.83278509  0.42591471  0.23246535  1
  Li  Li309  1  0.83278509  0.42591471  0.48246535  1
  Li  Li310  1  0.83278509  0.42591471  0.73246535  1
  Li  Li311  1  0.83278509  0.42591471  0.98246535  1
  Li  Li312  1  0.83278509  0.67591472  0.23246535  1
  Li  Li313  1  0.83278509  0.67591472  0.48246535  1
  Li  Li314  1  0.83278509  0.67591472  0.73246535  1
  Li  Li315  1  0.83278509  0.67591472  0.98246535  1
  Li  Li316  1  0.83278509  0.92591471  0.23246535  1
  Li  Li317  1  0.83278509  0.92591471  0.48246535  1
  Li  Li318  1  0.83278509  0.92591471  0.73246535  1
  Li  Li319  1  0.83278509  0.92591471  0.98246535  1
  Li  Li320  1  0.04221491  0.07408529  0.10746535  1
  Li  Li321  1  0.04221491  0.07408529  0.35746535  1
  Li  Li322  1  0.04221491  0.07408529  0.60746535  1
  Li  Li323  1  0.04221491  0.07408529  0.85746535  1
  Li  Li324  1  0.04221491  0.32408529  0.10746535  1
  Li  Li325  1  0.04221491  0.32408529  0.35746535  1
  Li  Li326  1  0.04221491  0.32408529  0.60746535  1
  Li  Li327  1  0.04221491  0.32408529  0.85746535  1
  Li  Li328  1  0.04221491  0.57408529  0.10746535  1
  Li  Li329  1  0.04221491  0.57408529  0.35746535  1
  Li  Li330  1  0.04221491  0.57408529  0.60746535  1
  Li  Li331  1  0.04221491  0.57408529  0.85746535  1
  Li  Li332  1  0.04221491  0.82408529  0.10746535  1
  Li  Li333  1  0.04221491  0.82408529  0.35746535  1
  Li  Li334  1  0.04221491  0.82408529  0.60746535  1
  Li  Li335  1  0.04221491  0.82408529  0.85746535  1
  Li  Li336  1  0.29221491  0.07408529  0.10746535  1
  Li  Li337  1  0.29221491  0.07408529  0.35746535  1
  Li  Li338  1  0.29221491  0.07408529  0.60746535  1
  Li  Li339  1  0.29221491  0.07408529  0.85746535  1
  Li  Li340  1  0.29221491  0.32408529  0.10746535  1
  Li  Li341  1  0.29221491  0.32408529  0.35746535  1
  Li  Li342  1  0.29221491  0.32408529  0.60746535  1
  Li  Li343  1  0.29221491  0.32408529  0.85746535  1
  Li  Li344  1  0.29221491  0.57408529  0.10746535  1
  Li  Li345  1  0.29221491  0.57408529  0.35746535  1
  Li  Li346  1  0.29221491  0.57408529  0.60746535  1
  Li  Li347  1  0.29221491  0.57408529  0.85746535  1
  Li  Li348  1  0.29221491  0.82408529  0.10746535  1
  Li  Li349  1  0.29221491  0.82408529  0.35746535  1
  Li  Li350  1  0.29221491  0.82408529  0.60746535  1
  Li  Li351  1  0.29221491  0.82408529  0.85746535  1
  Li  Li352  1  0.54221491  0.07408529  0.10746535  1
  Li  Li353  1  0.54221491  0.07408529  0.35746535  1
  Li  Li354  1  0.54221491  0.07408529  0.60746535  1
  Li  Li355  1  0.54221491  0.07408529  0.85746535  1
  Li  Li356  1  0.54221491  0.32408529  0.10746535  1
  Li  Li357  1  0.54221491  0.32408529  0.35746535  1
  Li  Li358  1  0.54221491  0.32408529  0.60746535  1
  Li  Li359  1  0.54221491  0.32408529  0.85746535  1
  Li  Li360  1  0.54221491  0.57408529  0.10746535  1
  Li  Li361  1  0.54221491  0.57408529  0.35746535  1
  Li  Li362  1  0.54221491  0.57408529  0.60746535  1
  Li  Li363  1  0.54221491  0.57408529  0.85746535  1
  Li  Li364  1  0.54221491  0.82408529  0.10746535  1
  Li  Li365  1  0.54221491  0.82408529  0.35746535  1
  Li  Li366  1  0.54221491  0.82408529  0.60746535  1
  Li  Li367  1  0.54221491  0.82408529  0.85746535  1
  Li  Li368  1  0.79221491  0.07408529  0.10746535  1
  Li  Li369  1  0.79221491  0.07408529  0.35746535  1
  Li  Li370  1  0.79221491  0.07408529  0.60746535  1
  Li  Li371  1  0.79221491  0.07408529  0.85746535  1
  Li  Li372  1  0.79221491  0.32408529  0.10746535  1
  Li  Li373  1  0.79221491  0.32408529  0.35746535  1
  Li  Li374  1  0.79221491  0.32408529  0.60746535  1
  Li  Li375  1  0.79221491  0.32408529  0.85746535  1
  Li  Li376  1  0.79221491  0.57408529  0.10746535  1
  Li  Li377  1  0.79221491  0.57408529  0.35746535  1
  Li  Li378  1  0.79221491  0.57408529  0.60746535  1
  Li  Li379  1  0.79221491  0.57408529  0.85746535  1
  Li  Li380  1  0.79221491  0.82408529  0.10746535  1
  Li  Li381  1  0.79221491  0.82408529  0.35746535  1
  Li  Li382  1  0.79221491  0.82408529  0.60746535  1
  Li  Li383  1  0.79221491  0.82408529  0.85746535  1
  Li  Li384  1  0.20778509  0.19908529  0.01753465  1
  Li  Li385  1  0.20778509  0.19908529  0.26753465  1
  Li  Li386  1  0.20778509  0.19908529  0.51753465  1
  Li  Li387  1  0.20778509  0.19908529  0.76753465  1
  Li  Li388  1  0.20778509  0.44908529  0.01753465  1
  Li  Li389  1  0.20778509  0.44908529  0.26753465  1
  Li  Li390  1  0.20778509  0.44908529  0.51753465  1
  Li  Li391  1  0.20778509  0.44908529  0.76753465  1
  Li  Li392  1  0.20778509  0.69908529  0.01753465  1
  Li  Li393  1  0.20778509  0.69908529  0.26753465  1
  Li  Li394  1  0.20778509  0.69908529  0.51753465  1
  Li  Li395  1  0.20778509  0.69908529  0.76753465  1
  Li  Li396  1  0.20778509  0.94908529  0.01753465  1
  Li  Li397  1  0.20778509  0.94908529  0.26753465  1
  Li  Li398  1  0.20778509  0.94908529  0.51753465  1
  Li  Li399  1  0.20778509  0.94908529  0.76753465  1
  Li  Li400  1  0.45778509  0.19908529  0.01753465  1
  Li  Li401  1  0.45778509  0.19908529  0.26753465  1
  Li  Li402  1  0.45778509  0.19908529  0.51753465  1
  Li  Li403  1  0.45778509  0.19908529  0.76753465  1
  Li  Li404  1  0.45778509  0.44908529  0.01753465  1
  Li  Li405  1  0.45778509  0.44908529  0.26753465  1
  Li  Li406  1  0.45778509  0.44908529  0.51753465  1
  Li  Li407  1  0.45778509  0.44908529  0.76753465  1
  Li  Li408  1  0.45778509  0.69908529  0.01753465  1
  Li  Li409  1  0.45778509  0.69908529  0.26753465  1
  Li  Li410  1  0.45778509  0.69908529  0.51753465  1
  Li  Li411  1  0.45778509  0.69908529  0.76753465  1
  Li  Li412  1  0.45778509  0.94908529  0.01753465  1
  Li  Li413  1  0.45778509  0.94908529  0.26753465  1
  Li  Li414  1  0.45778509  0.94908529  0.51753465  1
  Li  Li415  1  0.45778509  0.94908529  0.76753465  1
  Li  Li416  1  0.70778509  0.19908529  0.01753465  1
  Li  Li417  1  0.70778509  0.19908529  0.26753465  1
  Li  Li418  1  0.70778509  0.19908529  0.51753465  1
  Li  Li419  1  0.70778509  0.19908529  0.76753465  1
  Li  Li420  1  0.70778509  0.44908529  0.01753465  1
  Li  Li421  1  0.70778509  0.44908529  0.26753465  1
  Li  Li422  1  0.70778509  0.44908529  0.51753465  1
  Li  Li423  1  0.70778509  0.44908529  0.76753465  1
  Li  Li424  1  0.70778509  0.69908529  0.01753465  1
  Li  Li425  1  0.70778509  0.69908529  0.26753465  1
  Li  Li426  1  0.70778509  0.69908529  0.51753465  1
  Li  Li427  1  0.70778509  0.69908529  0.76753465  1
  Li  Li428  1  0.70778509  0.94908529  0.01753465  1
  Li  Li429  1  0.70778509  0.94908529  0.26753465  1
  Li  Li430  1  0.70778509  0.94908529  0.51753465  1
  Li  Li431  1  0.70778509  0.94908529  0.76753465  1
  Li  Li432  1  0.95778508  0.19908529  0.01753465  1
  Li  Li433  1  0.95778508  0.19908529  0.26753465  1
  Li  Li434  1  0.95778508  0.19908529  0.51753465  1
  Li  Li435  1  0.95778508  0.19908529  0.76753465  1
  Li  Li436  1  0.95778508  0.44908529  0.01753465  1
  Li  Li437  1  0.95778508  0.44908529  0.26753465  1
  Li  Li438  1  0.95778508  0.44908529  0.51753465  1
  Li  Li439  1  0.95778508  0.44908529  0.76753465  1
  Li  Li440  1  0.95778508  0.69908529  0.01753465  1
  Li  Li441  1  0.95778508  0.69908529  0.26753465  1
  Li  Li442  1  0.95778508  0.69908529  0.51753465  1
  Li  Li443  1  0.95778508  0.69908529  0.76753465  1
  Li  Li444  1  0.95778508  0.94908529  0.01753465  1
  Li  Li445  1  0.95778508  0.94908529  0.26753465  1
  Li  Li446  1  0.95778508  0.94908529  0.51753465  1
  Li  Li447  1  0.95778508  0.94908529  0.76753465  1
  Li  Li448  1  0.16721491  0.05091471  0.14253465  1
  Li  Li449  1  0.16721491  0.05091471  0.39253465  1
  Li  Li450  1  0.16721491  0.05091471  0.64253465  1
  Li  Li451  1  0.16721491  0.05091471  0.89253465  1
  Li  Li452  1  0.16721491  0.30091471  0.14253465  1
  Li  Li453  1  0.16721491  0.30091471  0.39253465  1
  Li  Li454  1  0.16721491  0.30091471  0.64253465  1
  Li  Li455  1  0.16721491  0.30091471  0.89253465  1
  Li  Li456  1  0.16721491  0.55091471  0.14253465  1
  Li  Li457  1  0.16721491  0.55091471  0.39253465  1
  Li  Li458  1  0.16721491  0.55091471  0.64253465  1
  Li  Li459  1  0.16721491  0.55091471  0.89253465  1
  Li  Li460  1  0.16721491  0.80091471  0.14253465  1
  Li  Li461  1  0.16721491  0.80091471  0.39253465  1
  Li  Li462  1  0.16721491  0.80091471  0.64253465  1
  Li  Li463  1  0.16721491  0.80091471  0.89253465  1
  Li  Li464  1  0.41721491  0.05091471  0.14253465  1
  Li  Li465  1  0.41721491  0.05091471  0.39253465  1
  Li  Li466  1  0.41721491  0.05091471  0.64253465  1
  Li  Li467  1  0.41721491  0.05091471  0.89253465  1
  Li  Li468  1  0.41721491  0.30091471  0.14253465  1
  Li  Li469  1  0.41721491  0.30091471  0.39253465  1
  Li  Li470  1  0.41721491  0.30091471  0.64253465  1
  Li  Li471  1  0.41721491  0.30091471  0.89253465  1
  Li  Li472  1  0.41721491  0.55091471  0.14253465  1
  Li  Li473  1  0.41721491  0.55091471  0.39253465  1
  Li  Li474  1  0.41721491  0.55091471  0.64253465  1
  Li  Li475  1  0.41721491  0.55091471  0.89253465  1
  Li  Li476  1  0.41721491  0.80091471  0.14253465  1
  Li  Li477  1  0.41721491  0.80091471  0.39253465  1
  Li  Li478  1  0.41721491  0.80091471  0.64253465  1
  Li  Li479  1  0.41721491  0.80091471  0.89253465  1
  Li  Li480  1  0.66721491  0.05091471  0.14253465  1
  Li  Li481  1  0.66721491  0.05091471  0.39253465  1
  Li  Li482  1  0.66721491  0.05091471  0.64253465  1
  Li  Li483  1  0.66721491  0.05091471  0.89253465  1
  Li  Li484  1  0.66721491  0.30091471  0.14253465  1
  Li  Li485  1  0.66721491  0.30091471  0.39253465  1
  Li  Li486  1  0.66721491  0.30091471  0.64253465  1
  Li  Li487  1  0.66721491  0.30091471  0.89253465  1
  Li  Li488  1  0.66721491  0.55091471  0.14253465  1
  Li  Li489  1  0.66721491  0.55091471  0.39253465  1
  Li  Li490  1  0.66721491  0.55091471  0.64253465  1
  Li  Li491  1  0.66721491  0.55091471  0.89253465  1
  Li  Li492  1  0.66721491  0.80091471  0.14253465  1
  Li  Li493  1  0.66721491  0.80091471  0.39253465  1
  Li  Li494  1  0.66721491  0.80091471  0.64253465  1
  Li  Li495  1  0.66721491  0.80091471  0.89253465  1
  Li  Li496  1  0.91721492  0.05091471  0.14253465  1
  Li  Li497  1  0.91721492  0.05091471  0.39253465  1
  Li  Li498  1  0.91721492  0.05091471  0.64253465  1
  Li  Li499  1  0.91721492  0.05091471  0.89253465  1
  Li  Li500  1  0.91721492  0.30091471  0.14253465  1
  Li  Li501  1  0.91721492  0.30091471  0.39253465  1
  Li  Li502  1  0.91721492  0.30091471  0.64253465  1
  Li  Li503  1  0.91721492  0.30091471  0.89253465  1
  Li  Li504  1  0.91721492  0.55091471  0.14253465  1
  Li  Li505  1  0.91721492  0.55091471  0.39253465  1
  Li  Li506  1  0.91721492  0.55091471  0.64253465  1
  Li  Li507  1  0.91721492  0.55091471  0.89253465  1
  Li  Li508  1  0.91721492  0.80091471  0.14253465  1
  Li  Li509  1  0.91721492  0.80091471  0.39253465  1
  Li  Li510  1  0.91721492  0.80091471  0.64253465  1
  Li  Li511  1  0.91721492  0.80091471  0.89253465  1
  B  B512  1  0.22864183  0.20455900  0.21006747  1
  B  B513  1  0.22864183  0.20455900  0.46006747  1
  B  B514  1  0.22864183  0.20455900  0.71006747  1
  B  B515  1  0.22864183  0.20455900  0.96006747  1
  B  B516  1  0.22864183  0.45455900  0.21006747  1
  B  B517  1  0.22864183  0.45455900  0.46006747  1
  B  B518  1  0.22864183  0.45455900  0.71006747  1
  B  B519  1  0.22864183  0.45455900  0.96006747  1
  B  B520  1  0.22864183  0.70455900  0.21006747  1
  B  B521  1  0.22864183  0.70455900  0.46006747  1
  B  B522  1  0.22864183  0.70455900  0.71006747  1
  B  B523  1  0.22864183  0.70455900  0.96006747  1
  B  B524  1  0.22864183  0.95455900  0.21006747  1
  B  B525  1  0.22864183  0.95455900  0.46006747  1
  B  B526  1  0.22864183  0.95455900  0.71006747  1
  B  B527  1  0.22864183  0.95455900  0.96006747  1
  B  B528  1  0.47864183  0.20455900  0.21006747  1
  B  B529  1  0.47864183  0.20455900  0.46006747  1
  B  B530  1  0.47864183  0.20455900  0.71006747  1
  B  B531  1  0.47864183  0.20455900  0.96006747  1
  B  B532  1  0.47864183  0.45455900  0.21006747  1
  B  B533  1  0.47864183  0.45455900  0.46006747  1
  B  B534  1  0.47864183  0.45455900  0.71006747  1
  B  B535  1  0.47864183  0.45455900  0.96006747  1
  B  B536  1  0.47864183  0.70455900  0.21006747  1
  B  B537  1  0.47864183  0.70455900  0.46006747  1
  B  B538  1  0.47864183  0.70455900  0.71006747  1
  B  B539  1  0.47864183  0.70455900  0.96006747  1
  B  B540  1  0.47864183  0.95455900  0.21006747  1
  B  B541  1  0.47864183  0.95455900  0.46006747  1
  B  B542  1  0.47864183  0.95455900  0.71006747  1
  B  B543  1  0.47864183  0.95455900  0.96006747  1
  B  B544  1  0.72864183  0.20455900  0.21006747  1
  B  B545  1  0.72864183  0.20455900  0.46006747  1
  B  B546  1  0.72864183  0.20455900  0.71006747  1
  B  B547  1  0.72864183  0.20455900  0.96006747  1
  B  B548  1  0.72864183  0.45455900  0.21006747  1
  B  B549  1  0.72864183  0.45455900  0.46006747  1
  B  B550  1  0.72864183  0.45455900  0.71006747  1
  B  B551  1  0.72864183  0.45455900  0.96006747  1
  B  B552  1  0.72864183  0.70455900  0.21006747  1
  B  B553  1  0.72864183  0.70455900  0.46006747  1
  B  B554  1  0.72864183  0.70455900  0.71006747  1
  B  B555  1  0.72864183  0.70455900  0.96006747  1
  B  B556  1  0.72864183  0.95455900  0.21006747  1
  B  B557  1  0.72864183  0.95455900  0.46006747  1
  B  B558  1  0.72864183  0.95455900  0.71006747  1
  B  B559  1  0.72864183  0.95455900  0.96006747  1
  B  B560  1  0.97864183  0.20455900  0.21006747  1
  B  B561  1  0.97864183  0.20455900  0.46006747  1
  B  B562  1  0.97864183  0.20455900  0.71006747  1
  B  B563  1  0.97864183  0.20455900  0.96006747  1
  B  B564  1  0.97864183  0.45455900  0.21006747  1
  B  B565  1  0.97864183  0.45455900  0.46006747  1
  B  B566  1  0.97864183  0.45455900  0.71006747  1
  B  B567  1  0.97864183  0.45455900  0.96006747  1
  B  B568  1  0.97864183  0.70455900  0.21006747  1
  B  B569  1  0.97864183  0.70455900  0.46006747  1
  B  B570  1  0.97864183  0.70455900  0.71006747  1
  B  B571  1  0.97864183  0.70455900  0.96006747  1
  B  B572  1  0.97864183  0.95455900  0.21006747  1
  B  B573  1  0.97864183  0.95455900  0.46006747  1
  B  B574  1  0.97864183  0.95455900  0.71006747  1
  B  B575  1  0.97864183  0.95455900  0.96006747  1
  B  B576  1  0.14635817  0.04544100  0.08506747  1
  B  B577  1  0.14635817  0.04544100  0.33506747  1
  B  B578  1  0.14635817  0.04544100  0.58506747  1
  B  B579  1  0.14635817  0.04544100  0.83506747  1
  B  B580  1  0.14635817  0.29544100  0.08506747  1
  B  B581  1  0.14635817  0.29544100  0.33506747  1
  B  B582  1  0.14635817  0.29544100  0.58506747  1
  B  B583  1  0.14635817  0.29544100  0.83506747  1
  B  B584  1  0.14635817  0.54544100  0.08506747  1
  B  B585  1  0.14635817  0.54544100  0.33506747  1
  B  B586  1  0.14635817  0.54544100  0.58506747  1
  B  B587  1  0.14635817  0.54544100  0.83506747  1
  B  B588  1  0.14635817  0.79544100  0.08506747  1
  B  B589  1  0.14635817  0.79544100  0.33506747  1
  B  B590  1  0.14635817  0.79544100  0.58506747  1
  B  B591  1  0.14635817  0.79544100  0.83506747  1
  B  B592  1  0.39635817  0.04544100  0.08506747  1
  B  B593  1  0.39635817  0.04544100  0.33506747  1
  B  B594  1  0.39635817  0.04544100  0.58506747  1
  B  B595  1  0.39635817  0.04544100  0.83506747  1
  B  B596  1  0.39635817  0.29544100  0.08506747  1
  B  B597  1  0.39635817  0.29544100  0.33506747  1
  B  B598  1  0.39635817  0.29544100  0.58506747  1
  B  B599  1  0.39635817  0.29544100  0.83506747  1
  B  B600  1  0.39635817  0.54544100  0.08506747  1
  B  B601  1  0.39635817  0.54544100  0.33506747  1
  B  B602  1  0.39635817  0.54544100  0.58506747  1
  B  B603  1  0.39635817  0.54544100  0.83506747  1
  B  B604  1  0.39635817  0.79544100  0.08506747  1
  B  B605  1  0.39635817  0.79544100  0.33506747  1
  B  B606  1  0.39635817  0.79544100  0.58506747  1
  B  B607  1  0.39635817  0.79544100  0.83506747  1
  B  B608  1  0.64635817  0.04544100  0.08506747  1
  B  B609  1  0.64635817  0.04544100  0.33506747  1
  B  B610  1  0.64635817  0.04544100  0.58506747  1
  B  B611  1  0.64635817  0.04544100  0.83506747  1
  B  B612  1  0.64635817  0.29544100  0.08506747  1
  B  B613  1  0.64635817  0.29544100  0.33506747  1
  B  B614  1  0.64635817  0.29544100  0.58506747  1
  B  B615  1  0.64635817  0.29544100  0.83506747  1
  B  B616  1  0.64635817  0.54544100  0.08506747  1
  B  B617  1  0.64635817  0.54544100  0.33506747  1
  B  B618  1  0.64635817  0.54544100  0.58506747  1
  B  B619  1  0.64635817  0.54544100  0.83506747  1
  B  B620  1  0.64635817  0.79544100  0.08506747  1
  B  B621  1  0.64635817  0.79544100  0.33506747  1
  B  B622  1  0.64635817  0.79544100  0.58506747  1
  B  B623  1  0.64635817  0.79544100  0.83506747  1
  B  B624  1  0.89635817  0.04544100  0.08506747  1
  B  B625  1  0.89635817  0.04544100  0.33506747  1
  B  B626  1  0.89635817  0.04544100  0.58506747  1
  B  B627  1  0.89635817  0.04544100  0.83506747  1
  B  B628  1  0.89635817  0.29544100  0.08506747  1
  B  B629  1  0.89635817  0.29544100  0.33506747  1
  B  B630  1  0.89635817  0.29544100  0.58506747  1
  B  B631  1  0.89635817  0.29544100  0.83506747  1
  B  B632  1  0.89635817  0.54544100  0.08506747  1
  B  B633  1  0.89635817  0.54544100  0.33506747  1
  B  B634  1  0.89635817  0.54544100  0.58506747  1
  B  B635  1  0.89635817  0.54544100  0.83506747  1
  B  B636  1  0.89635817  0.79544100  0.08506747  1
  B  B637  1  0.89635817  0.79544100  0.33506747  1
  B  B638  1  0.89635817  0.79544100  0.58506747  1
  B  B639  1  0.89635817  0.79544100  0.83506747  1
  B  B640  1  0.10364183  0.17044100  0.03993253  1
  B  B641  1  0.10364183  0.17044100  0.28993253  1
  B  B642  1  0.10364183  0.17044100  0.53993253  1
  B  B643  1  0.10364183  0.17044100  0.78993253  1
  B  B644  1  0.10364183  0.42044100  0.03993253  1
  B  B645  1  0.10364183  0.42044100  0.28993253  1
  B  B646  1  0.10364183  0.42044100  0.53993253  1
  B  B647  1  0.10364183  0.42044100  0.78993253  1
  B  B648  1  0.10364183  0.67044100  0.03993253  1
  B  B649  1  0.10364183  0.67044100  0.28993253  1
  B  B650  1  0.10364183  0.67044100  0.53993253  1
  B  B651  1  0.10364183  0.67044100  0.78993253  1
  B  B652  1  0.10364183  0.92044100  0.03993253  1
  B  B653  1  0.10364183  0.92044100  0.28993253  1
  B  B654  1  0.10364183  0.92044100  0.53993253  1
  B  B655  1  0.10364183  0.92044100  0.78993253  1
  B  B656  1  0.35364183  0.17044100  0.03993253  1
  B  B657  1  0.35364183  0.17044100  0.28993253  1
  B  B658  1  0.35364183  0.17044100  0.53993253  1
  B  B659  1  0.35364183  0.17044100  0.78993253  1
  B  B660  1  0.35364183  0.42044100  0.03993253  1
  B  B661  1  0.35364183  0.42044100  0.28993253  1
  B  B662  1  0.35364183  0.42044100  0.53993253  1
  B  B663  1  0.35364183  0.42044100  0.78993253  1
  B  B664  1  0.35364183  0.67044100  0.03993253  1
  B  B665  1  0.35364183  0.67044100  0.28993253  1
  B  B666  1  0.35364183  0.67044100  0.53993253  1
  B  B667  1  0.35364183  0.67044100  0.78993253  1
  B  B668  1  0.35364183  0.92044100  0.03993253  1
  B  B669  1  0.35364183  0.92044100  0.28993253  1
  B  B670  1  0.35364183  0.92044100  0.53993253  1
  B  B671  1  0.35364183  0.92044100  0.78993253  1
  B  B672  1  0.60364183  0.17044100  0.03993253  1
  B  B673  1  0.60364183  0.17044100  0.28993253  1
  B  B674  1  0.60364183  0.17044100  0.53993253  1
  B  B675  1  0.60364183  0.17044100  0.78993253  1
  B  B676  1  0.60364183  0.42044100  0.03993253  1
  B  B677  1  0.60364183  0.42044100  0.28993253  1
  B  B678  1  0.60364183  0.42044100  0.53993253  1
  B  B679  1  0.60364183  0.42044100  0.78993253  1
  B  B680  1  0.60364183  0.67044100  0.03993253  1
  B  B681  1  0.60364183  0.67044100  0.28993253  1
  B  B682  1  0.60364183  0.67044100  0.53993253  1
  B  B683  1  0.60364183  0.67044100  0.78993253  1
  B  B684  1  0.60364183  0.92044100  0.03993253  1
  B  B685  1  0.60364183  0.92044100  0.28993253  1
  B  B686  1  0.60364183  0.92044100  0.53993253  1
  B  B687  1  0.60364183  0.92044100  0.78993253  1
  B  B688  1  0.85364183  0.17044100  0.03993253  1
  B  B689  1  0.85364183  0.17044100  0.28993253  1
  B  B690  1  0.85364183  0.17044100  0.53993253  1
  B  B691  1  0.85364183  0.17044100  0.78993253  1
  B  B692  1  0.85364183  0.42044100  0.03993253  1
  B  B693  1  0.85364183  0.42044100  0.28993253  1
  B  B694  1  0.85364183  0.42044100  0.53993253  1
  B  B695  1  0.85364183  0.42044100  0.78993253  1
  B  B696  1  0.85364183  0.67044100  0.03993253  1
  B  B697  1  0.85364183  0.67044100  0.28993253  1
  B  B698  1  0.85364183  0.67044100  0.53993253  1
  B  B699  1  0.85364183  0.67044100  0.78993253  1
  B  B700  1  0.85364183  0.92044100  0.03993253  1
  B  B701  1  0.85364183  0.92044100  0.28993253  1
  B  B702  1  0.85364183  0.92044100  0.53993253  1
  B  B703  1  0.85364183  0.92044100  0.78993253  1
  B  B704  1  0.02135817  0.07955900  0.16493253  1
  B  B705  1  0.02135817  0.07955900  0.41493253  1
  B  B706  1  0.02135817  0.07955900  0.66493253  1
  B  B707  1  0.02135817  0.07955900  0.91493253  1
  B  B708  1  0.02135817  0.32955900  0.16493253  1
  B  B709  1  0.02135817  0.32955900  0.41493253  1
  B  B710  1  0.02135817  0.32955900  0.66493253  1
  B  B711  1  0.02135817  0.32955900  0.91493253  1
  B  B712  1  0.02135817  0.57955900  0.16493253  1
  B  B713  1  0.02135817  0.57955900  0.41493253  1
  B  B714  1  0.02135817  0.57955900  0.66493253  1
  B  B715  1  0.02135817  0.57955900  0.91493253  1
  B  B716  1  0.02135817  0.82955900  0.16493253  1
  B  B717  1  0.02135817  0.82955900  0.41493253  1
  B  B718  1  0.02135817  0.82955900  0.66493253  1
  B  B719  1  0.02135817  0.82955900  0.91493253  1
  B  B720  1  0.27135817  0.07955900  0.16493253  1
  B  B721  1  0.27135817  0.07955900  0.41493253  1
  B  B722  1  0.27135817  0.07955900  0.66493253  1
  B  B723  1  0.27135817  0.07955900  0.91493253  1
  B  B724  1  0.27135817  0.32955900  0.16493253  1
  B  B725  1  0.27135817  0.32955900  0.41493253  1
  B  B726  1  0.27135817  0.32955900  0.66493253  1
  B  B727  1  0.27135817  0.32955900  0.91493253  1
  B  B728  1  0.27135817  0.57955900  0.16493253  1
  B  B729  1  0.27135817  0.57955900  0.41493253  1
  B  B730  1  0.27135817  0.57955900  0.66493253  1
  B  B731  1  0.27135817  0.57955900  0.91493253  1
  B  B732  1  0.27135817  0.82955900  0.16493253  1
  B  B733  1  0.27135817  0.82955900  0.41493253  1
  B  B734  1  0.27135817  0.82955900  0.66493253  1
  B  B735  1  0.27135817  0.82955900  0.91493253  1
  B  B736  1  0.52135817  0.07955900  0.16493253  1
  B  B737  1  0.52135817  0.07955900  0.41493253  1
  B  B738  1  0.52135817  0.07955900  0.66493253  1
  B  B739  1  0.52135817  0.07955900  0.91493253  1
  B  B740  1  0.52135817  0.32955900  0.16493253  1
  B  B741  1  0.52135817  0.32955900  0.41493253  1
  B  B742  1  0.52135817  0.32955900  0.66493253  1
  B  B743  1  0.52135817  0.32955900  0.91493253  1
  B  B744  1  0.52135817  0.57955900  0.16493253  1
  B  B745  1  0.52135817  0.57955900  0.41493253  1
  B  B746  1  0.52135817  0.57955900  0.66493253  1
  B  B747  1  0.52135817  0.57955900  0.91493253  1
  B  B748  1  0.52135817  0.82955900  0.16493253  1
  B  B749  1  0.52135817  0.82955900  0.41493253  1
  B  B750  1  0.52135817  0.82955900  0.66493253  1
  B  B751  1  0.52135817  0.82955900  0.91493253  1
  B  B752  1  0.77135817  0.07955900  0.16493253  1
  B  B753  1  0.77135817  0.07955900  0.41493253  1
  B  B754  1  0.77135817  0.07955900  0.66493253  1
  B  B755  1  0.77135817  0.07955900  0.91493253  1
  B  B756  1  0.77135817  0.32955900  0.16493253  1
  B  B757  1  0.77135817  0.32955900  0.41493253  1
  B  B758  1  0.77135817  0.32955900  0.66493253  1
  B  B759  1  0.77135817  0.32955900  0.91493253  1
  B  B760  1  0.77135817  0.57955900  0.16493253  1
  B  B761  1  0.77135817  0.57955900  0.41493253  1
  B  B762  1  0.77135817  0.57955900  0.66493253  1
  B  B763  1  0.77135817  0.57955900  0.91493253  1
  B  B764  1  0.77135817  0.82955900  0.16493253  1
  B  B765  1  0.77135817  0.82955900  0.41493253  1
  B  B766  1  0.77135817  0.82955900  0.66493253  1
  B  B767  1  0.77135817  0.82955900  0.91493253  1
  B  B768  1  0.02431056  0.00775707  0.24044134  1
  B  B769  1  0.02431056  0.00775707  0.49044134  1
  B  B770  1  0.02431056  0.00775707  0.74044134  1
  B  B771  1  0.02431056  0.00775707  0.99044134  1
  B  B772  1  0.02431056  0.25775707  0.24044134  1
  B  B773  1  0.02431056  0.25775707  0.49044134  1
  B  B774  1  0.02431056  0.25775707  0.74044134  1
  B  B775  1  0.02431056  0.25775707  0.99044134  1
  B  B776  1  0.02431056  0.50775707  0.24044134  1
  B  B777  1  0.02431056  0.50775707  0.49044134  1
  B  B778  1  0.02431056  0.50775707  0.74044134  1
  B  B779  1  0.02431056  0.50775707  0.99044134  1
  B  B780  1  0.02431056  0.75775707  0.24044134  1
  B  B781  1  0.02431056  0.75775707  0.49044134  1
  B  B782  1  0.02431056  0.75775707  0.74044134  1
  B  B783  1  0.02431056  0.75775707  0.99044134  1
  B  B784  1  0.27431056  0.00775707  0.24044134  1
  B  B785  1  0.27431056  0.00775707  0.49044134  1
  B  B786  1  0.27431056  0.00775707  0.74044134  1
  B  B787  1  0.27431056  0.00775707  0.99044134  1
  B  B788  1  0.27431056  0.25775707  0.24044134  1
  B  B789  1  0.27431056  0.25775707  0.49044134  1
  B  B790  1  0.27431056  0.25775707  0.74044134  1
  B  B791  1  0.27431056  0.25775707  0.99044134  1
  B  B792  1  0.27431056  0.50775707  0.24044134  1
  B  B793  1  0.27431056  0.50775707  0.49044134  1
  B  B794  1  0.27431056  0.50775707  0.74044134  1
  B  B795  1  0.27431056  0.50775707  0.99044134  1
  B  B796  1  0.27431056  0.75775707  0.24044134  1
  B  B797  1  0.27431056  0.75775707  0.49044134  1
  B  B798  1  0.27431056  0.75775707  0.74044134  1
  B  B799  1  0.27431056  0.75775707  0.99044134  1
  B  B800  1  0.52431056  0.00775707  0.24044134  1
  B  B801  1  0.52431056  0.00775707  0.49044134  1
  B  B802  1  0.52431056  0.00775707  0.74044134  1
  B  B803  1  0.52431056  0.00775707  0.99044134  1
  B  B804  1  0.52431056  0.25775707  0.24044134  1
  B  B805  1  0.52431056  0.25775707  0.49044134  1
  B  B806  1  0.52431056  0.25775707  0.74044134  1
  B  B807  1  0.52431056  0.25775707  0.99044134  1
  B  B808  1  0.52431056  0.50775707  0.24044134  1
  B  B809  1  0.52431056  0.50775707  0.49044134  1
  B  B810  1  0.52431056  0.50775707  0.74044134  1
  B  B811  1  0.52431056  0.50775707  0.99044134  1
  B  B812  1  0.52431056  0.75775707  0.24044134  1
  B  B813  1  0.52431056  0.75775707  0.49044134  1
  B  B814  1  0.52431056  0.75775707  0.74044134  1
  B  B815  1  0.52431056  0.75775707  0.99044134  1
  B  B816  1  0.77431056  0.00775707  0.24044134  1
  B  B817  1  0.77431056  0.00775707  0.49044134  1
  B  B818  1  0.77431056  0.00775707  0.74044134  1
  B  B819  1  0.77431056  0.00775707  0.99044134  1
  B  B820  1  0.77431056  0.25775707  0.24044134  1
  B  B821  1  0.77431056  0.25775707  0.49044134  1
  B  B822  1  0.77431056  0.25775707  0.74044134  1
  B  B823  1  0.77431056  0.25775707  0.99044134  1
  B  B824  1  0.77431056  0.50775707  0.24044134  1
  B  B825  1  0.77431056  0.50775707  0.49044134  1
  B  B826  1  0.77431056  0.50775707  0.74044134  1
  B  B827  1  0.77431056  0.50775707  0.99044134  1
  B  B828  1  0.77431056  0.75775707  0.24044134  1
  B  B829  1  0.77431056  0.75775707  0.49044134  1
  B  B830  1  0.77431056  0.75775707  0.74044134  1
  B  B831  1  0.77431056  0.75775707  0.99044134  1
  B  B832  1  0.10068944  0.24224293  0.11544134  1
  B  B833  1  0.10068944  0.24224293  0.36544134  1
  B  B834  1  0.10068944  0.24224293  0.61544134  1
  B  B835  1  0.10068944  0.24224293  0.86544134  1
  B  B836  1  0.10068944  0.49224293  0.11544134  1
  B  B837  1  0.10068944  0.49224293  0.36544134  1
  B  B838  1  0.10068944  0.49224293  0.61544134  1
  B  B839  1  0.10068944  0.49224293  0.86544134  1
  B  B840  1  0.10068944  0.74224293  0.11544134  1
  B  B841  1  0.10068944  0.74224293  0.36544134  1
  B  B842  1  0.10068944  0.74224293  0.61544134  1
  B  B843  1  0.10068944  0.74224293  0.86544134  1
  B  B844  1  0.10068944  0.99224293  0.11544134  1
  B  B845  1  0.10068944  0.99224293  0.36544134  1
  B  B846  1  0.10068944  0.99224293  0.61544134  1
  B  B847  1  0.10068944  0.99224293  0.86544134  1
  B  B848  1  0.35068944  0.24224293  0.11544134  1
  B  B849  1  0.35068944  0.24224293  0.36544134  1
  B  B850  1  0.35068944  0.24224293  0.61544134  1
  B  B851  1  0.35068944  0.24224293  0.86544134  1
  B  B852  1  0.35068944  0.49224293  0.11544134  1
  B  B853  1  0.35068944  0.49224293  0.36544134  1
  B  B854  1  0.35068944  0.49224293  0.61544134  1
  B  B855  1  0.35068944  0.49224293  0.86544134  1
  B  B856  1  0.35068944  0.74224293  0.11544134  1
  B  B857  1  0.35068944  0.74224293  0.36544134  1
  B  B858  1  0.35068944  0.74224293  0.61544134  1
  B  B859  1  0.35068944  0.74224293  0.86544134  1
  B  B860  1  0.35068944  0.99224293  0.11544134  1
  B  B861  1  0.35068944  0.99224293  0.36544134  1
  B  B862  1  0.35068944  0.99224293  0.61544134  1
  B  B863  1  0.35068944  0.99224293  0.86544134  1
  B  B864  1  0.60068944  0.24224293  0.11544134  1
  B  B865  1  0.60068944  0.24224293  0.36544134  1
  B  B866  1  0.60068944  0.24224293  0.61544134  1
  B  B867  1  0.60068944  0.24224293  0.86544134  1
  B  B868  1  0.60068944  0.49224293  0.11544134  1
  B  B869  1  0.60068944  0.49224293  0.36544134  1
  B  B870  1  0.60068944  0.49224293  0.61544134  1
  B  B871  1  0.60068944  0.49224293  0.86544134  1
  B  B872  1  0.60068944  0.74224293  0.11544134  1
  B  B873  1  0.60068944  0.74224293  0.36544134  1
  B  B874  1  0.60068944  0.74224293  0.61544134  1
  B  B875  1  0.60068944  0.74224293  0.86544134  1
  B  B876  1  0.60068944  0.99224293  0.11544134  1
  B  B877  1  0.60068944  0.99224293  0.36544134  1
  B  B878  1  0.60068944  0.99224293  0.61544134  1
  B  B879  1  0.60068944  0.99224293  0.86544134  1
  B  B880  1  0.85068944  0.24224293  0.11544134  1
  B  B881  1  0.85068944  0.24224293  0.36544134  1
  B  B882  1  0.85068944  0.24224293  0.61544134  1
  B  B883  1  0.85068944  0.24224293  0.86544134  1
  B  B884  1  0.85068944  0.49224293  0.11544134  1
  B  B885  1  0.85068944  0.49224293  0.36544134  1
  B  B886  1  0.85068944  0.49224293  0.61544134  1
  B  B887  1  0.85068944  0.49224293  0.86544134  1
  B  B888  1  0.85068944  0.74224293  0.11544134  1
  B  B889  1  0.85068944  0.74224293  0.36544134  1
  B  B890  1  0.85068944  0.74224293  0.61544134  1
  B  B891  1  0.85068944  0.74224293  0.86544134  1
  B  B892  1  0.85068944  0.99224293  0.11544134  1
  B  B893  1  0.85068944  0.99224293  0.36544134  1
  B  B894  1  0.85068944  0.99224293  0.61544134  1
  B  B895  1  0.85068944  0.99224293  0.86544134  1
  B  B896  1  0.14931056  0.11724293  0.00955866  1
  B  B897  1  0.14931056  0.11724293  0.25955866  1
  B  B898  1  0.14931056  0.11724293  0.50955866  1
  B  B899  1  0.14931056  0.11724293  0.75955866  1
  B  B900  1  0.14931056  0.36724293  0.00955866  1
  B  B901  1  0.14931056  0.36724293  0.25955866  1
  B  B902  1  0.14931056  0.36724293  0.50955866  1
  B  B903  1  0.14931056  0.36724293  0.75955866  1
  B  B904  1  0.14931056  0.61724293  0.00955866  1
  B  B905  1  0.14931056  0.61724293  0.25955866  1
  B  B906  1  0.14931056  0.61724293  0.50955866  1
  B  B907  1  0.14931056  0.61724293  0.75955866  1
  B  B908  1  0.14931056  0.86724293  0.00955866  1
  B  B909  1  0.14931056  0.86724293  0.25955866  1
  B  B910  1  0.14931056  0.86724293  0.50955866  1
  B  B911  1  0.14931056  0.86724293  0.75955866  1
  B  B912  1  0.39931056  0.11724293  0.00955866  1
  B  B913  1  0.39931056  0.11724293  0.25955866  1
  B  B914  1  0.39931056  0.11724293  0.50955866  1
  B  B915  1  0.39931056  0.11724293  0.75955866  1
  B  B916  1  0.39931056  0.36724293  0.00955866  1
  B  B917  1  0.39931056  0.36724293  0.25955866  1
  B  B918  1  0.39931056  0.36724293  0.50955866  1
  B  B919  1  0.39931056  0.36724293  0.75955866  1
  B  B920  1  0.39931056  0.61724293  0.00955866  1
  B  B921  1  0.39931056  0.61724293  0.25955866  1
  B  B922  1  0.39931056  0.61724293  0.50955866  1
  B  B923  1  0.39931056  0.61724293  0.75955866  1
  B  B924  1  0.39931056  0.86724293  0.00955866  1
  B  B925  1  0.39931056  0.86724293  0.25955866  1
  B  B926  1  0.39931056  0.86724293  0.50955866  1
  B  B927  1  0.39931056  0.86724293  0.75955866  1
  B  B928  1  0.64931056  0.11724293  0.00955866  1
  B  B929  1  0.64931056  0.11724293  0.25955866  1
  B  B930  1  0.64931056  0.11724293  0.50955866  1
  B  B931  1  0.64931056  0.11724293  0.75955866  1
  B  B932  1  0.64931056  0.36724293  0.00955866  1
  B  B933  1  0.64931056  0.36724293  0.25955866  1
  B  B934  1  0.64931056  0.36724293  0.50955866  1
  B  B935  1  0.64931056  0.36724293  0.75955866  1
  B  B936  1  0.64931056  0.61724293  0.00955866  1
  B  B937  1  0.64931056  0.61724293  0.25955866  1
  B  B938  1  0.64931056  0.61724293  0.50955866  1
  B  B939  1  0.64931056  0.61724293  0.75955866  1
  B  B940  1  0.64931056  0.86724293  0.00955866  1
  B  B941  1  0.64931056  0.86724293  0.25955866  1
  B  B942  1  0.64931056  0.86724293  0.50955866  1
  B  B943  1  0.64931056  0.86724293  0.75955866  1
  B  B944  1  0.89931056  0.11724293  0.00955866  1
  B  B945  1  0.89931056  0.11724293  0.25955866  1
  B  B946  1  0.89931056  0.11724293  0.50955866  1
  B  B947  1  0.89931056  0.11724293  0.75955866  1
  B  B948  1  0.89931056  0.36724293  0.00955866  1
  B  B949  1  0.89931056  0.36724293  0.25955866  1
  B  B950  1  0.89931056  0.36724293  0.50955866  1
  B  B951  1  0.89931056  0.36724293  0.75955866  1
  B  B952  1  0.89931056  0.61724293  0.00955866  1
  B  B953  1  0.89931056  0.61724293  0.25955866  1
  B  B954  1  0.89931056  0.61724293  0.50955866  1
  B  B955  1  0.89931056  0.61724293  0.75955866  1
  B  B956  1  0.89931056  0.86724293  0.00955866  1
  B  B957  1  0.89931056  0.86724293  0.25955866  1
  B  B958  1  0.89931056  0.86724293  0.50955866  1
  B  B959  1  0.89931056  0.86724293  0.75955866  1
  B  B960  1  0.22568944  0.13275707  0.13455866  1
  B  B961  1  0.22568944  0.13275707  0.38455866  1
  B  B962  1  0.22568944  0.13275707  0.63455866  1
  B  B963  1  0.22568944  0.13275707  0.88455866  1
  B  B964  1  0.22568944  0.38275707  0.13455866  1
  B  B965  1  0.22568944  0.38275707  0.38455866  1
  B  B966  1  0.22568944  0.38275707  0.63455866  1
  B  B967  1  0.22568944  0.38275707  0.88455866  1
  B  B968  1  0.22568944  0.63275707  0.13455866  1
  B  B969  1  0.22568944  0.63275707  0.38455866  1
  B  B970  1  0.22568944  0.63275707  0.63455866  1
  B  B971  1  0.22568944  0.63275707  0.88455866  1
  B  B972  1  0.22568944  0.88275707  0.13455866  1
  B  B973  1  0.22568944  0.88275707  0.38455866  1
  B  B974  1  0.22568944  0.88275707  0.63455866  1
  B  B975  1  0.22568944  0.88275707  0.88455866  1
  B  B976  1  0.47568944  0.13275707  0.13455866  1
  B  B977  1  0.47568944  0.13275707  0.38455866  1
  B  B978  1  0.47568944  0.13275707  0.63455866  1
  B  B979  1  0.47568944  0.13275707  0.88455866  1
  B  B980  1  0.47568944  0.38275707  0.13455866  1
  B  B981  1  0.47568944  0.38275707  0.38455866  1
  B  B982  1  0.47568944  0.38275707  0.63455866  1
  B  B983  1  0.47568944  0.38275707  0.88455866  1
  B  B984  1  0.47568944  0.63275707  0.13455866  1
  B  B985  1  0.47568944  0.63275707  0.38455866  1
  B  B986  1  0.47568944  0.63275707  0.63455866  1
  B  B987  1  0.47568944  0.63275707  0.88455866  1
  B  B988  1  0.47568944  0.88275707  0.13455866  1
  B  B989  1  0.47568944  0.88275707  0.38455866  1
  B  B990  1  0.47568944  0.88275707  0.63455866  1
  B  B991  1  0.47568944  0.88275707  0.88455866  1
  B  B992  1  0.72568944  0.13275707  0.13455866  1
  B  B993  1  0.72568944  0.13275707  0.38455866  1
  B  B994  1  0.72568944  0.13275707  0.63455866  1
  B  B995  1  0.72568944  0.13275707  0.88455866  1
  B  B996  1  0.72568944  0.38275707  0.13455866  1
  B  B997  1  0.72568944  0.38275707  0.38455866  1
  B  B998  1  0.72568944  0.38275707  0.63455866  1
  B  B999  1  0.72568944  0.38275707  0.88455866  1
  B  B1000  1  0.72568944  0.63275707  0.13455866  1
  B  B1001  1  0.72568944  0.63275707  0.38455866  1
  B  B1002  1  0.72568944  0.63275707  0.63455866  1
  B  B1003  1  0.72568944  0.63275707  0.88455866  1
  B  B1004  1  0.72568944  0.88275707  0.13455866  1
  B  B1005  1  0.72568944  0.88275707  0.38455866  1
  B  B1006  1  0.72568944  0.88275707  0.63455866  1
  B  B1007  1  0.72568944  0.88275707  0.88455866  1
  B  B1008  1  0.97568944  0.13275707  0.13455866  1
  B  B1009  1  0.97568944  0.13275707  0.38455866  1
  B  B1010  1  0.97568944  0.13275707  0.63455866  1
  B  B1011  1  0.97568944  0.13275707  0.88455866  1
  B  B1012  1  0.97568944  0.38275707  0.13455866  1
  B  B1013  1  0.97568944  0.38275707  0.38455866  1
  B  B1014  1  0.97568944  0.38275707  0.63455866  1
  B  B1015  1  0.97568944  0.38275707  0.88455866  1
  B  B1016  1  0.97568944  0.63275707  0.13455866  1
  B  B1017  1  0.97568944  0.63275707  0.38455866  1
  B  B1018  1  0.97568944  0.63275707  0.63455866  1
  B  B1019  1  0.97568944  0.63275707  0.88455866  1
  B  B1020  1  0.97568944  0.88275707  0.13455866  1
  B  B1021  1  0.97568944  0.88275707  0.38455866  1
  B  B1022  1  0.97568944  0.88275707  0.63455866  1
  B  B1023  1  0.97568944  0.88275707  0.88455866  1
  B  B1024  1  0.24517135  0.01962138  0.19230559  1
  B  B1025  1  0.24517135  0.01962138  0.44230559  1
  B  B1026  1  0.24517135  0.01962138  0.69230559  1
  B  B1027  1  0.24517135  0.01962138  0.94230559  1
  B  B1028  1  0.24517135  0.26962138  0.19230559  1
  B  B1029  1  0.24517135  0.26962138  0.44230559  1
  B  B1030  1  0.24517135  0.26962138  0.69230559  1
  B  B1031  1  0.24517135  0.26962138  0.94230559  1
  B  B1032  1  0.24517135  0.51962138  0.19230559  1
  B  B1033  1  0.24517135  0.51962138  0.44230559  1
  B  B1034  1  0.24517135  0.51962138  0.69230559  1
  B  B1035  1  0.24517135  0.51962138  0.94230559  1
  B  B1036  1  0.24517135  0.76962138  0.19230559  1
  B  B1037  1  0.24517135  0.76962138  0.44230559  1
  B  B1038  1  0.24517135  0.76962138  0.69230559  1
  B  B1039  1  0.24517135  0.76962138  0.94230559  1
  B  B1040  1  0.49517135  0.01962138  0.19230559  1
  B  B1041  1  0.49517135  0.01962138  0.44230559  1
  B  B1042  1  0.49517135  0.01962138  0.69230559  1
  B  B1043  1  0.49517135  0.01962138  0.94230559  1
  B  B1044  1  0.49517135  0.26962138  0.19230559  1
  B  B1045  1  0.49517135  0.26962138  0.44230559  1
  B  B1046  1  0.49517135  0.26962138  0.69230559  1
  B  B1047  1  0.49517135  0.26962138  0.94230559  1
  B  B1048  1  0.49517135  0.51962138  0.19230559  1
  B  B1049  1  0.49517135  0.51962138  0.44230559  1
  B  B1050  1  0.49517135  0.51962138  0.69230559  1
  B  B1051  1  0.49517135  0.51962138  0.94230559  1
  B  B1052  1  0.49517135  0.76962138  0.19230559  1
  B  B1053  1  0.49517135  0.76962138  0.44230559  1
  B  B1054  1  0.49517135  0.76962138  0.69230559  1
  B  B1055  1  0.49517135  0.76962138  0.94230559  1
  B  B1056  1  0.74517135  0.01962138  0.19230559  1
  B  B1057  1  0.74517135  0.01962138  0.44230559  1
  B  B1058  1  0.74517135  0.01962138  0.69230559  1
  B  B1059  1  0.74517135  0.01962138  0.94230559  1
  B  B1060  1  0.74517135  0.26962138  0.19230559  1
  B  B1061  1  0.74517135  0.26962138  0.44230559  1
  B  B1062  1  0.74517135  0.26962138  0.69230559  1
  B  B1063  1  0.74517135  0.26962138  0.94230559  1
  B  B1064  1  0.74517135  0.51962138  0.19230559  1
  B  B1065  1  0.74517135  0.51962138  0.44230559  1
  B  B1066  1  0.74517135  0.51962138  0.69230559  1
  B  B1067  1  0.74517135  0.51962138  0.94230559  1
  B  B1068  1  0.74517135  0.76962138  0.19230559  1
  B  B1069  1  0.74517135  0.76962138  0.44230559  1
  B  B1070  1  0.74517135  0.76962138  0.69230559  1
  B  B1071  1  0.74517135  0.76962138  0.94230559  1
  B  B1072  1  0.99517135  0.01962138  0.19230559  1
  B  B1073  1  0.99517135  0.01962138  0.44230559  1
  B  B1074  1  0.99517135  0.01962138  0.69230559  1
  B  B1075  1  0.99517135  0.01962138  0.94230559  1
  B  B1076  1  0.99517135  0.26962138  0.19230559  1
  B  B1077  1  0.99517135  0.26962138  0.44230559  1
  B  B1078  1  0.99517135  0.26962138  0.69230559  1
  B  B1079  1  0.99517135  0.26962138  0.94230559  1
  B  B1080  1  0.99517135  0.51962138  0.19230559  1
  B  B1081  1  0.99517135  0.51962138  0.44230559  1
  B  B1082  1  0.99517135  0.51962138  0.69230559  1
  B  B1083  1  0.99517135  0.51962138  0.94230559  1
  B  B1084  1  0.99517135  0.76962138  0.19230559  1
  B  B1085  1  0.99517135  0.76962138  0.44230559  1
  B  B1086  1  0.99517135  0.76962138  0.69230559  1
  B  B1087  1  0.99517135  0.76962138  0.94230559  1
  B  B1088  1  0.12982865  0.23037862  0.06730559  1
  B  B1089  1  0.12982865  0.23037862  0.31730559  1
  B  B1090  1  0.12982865  0.23037862  0.56730559  1
  B  B1091  1  0.12982865  0.23037862  0.81730559  1
  B  B1092  1  0.12982865  0.48037862  0.06730559  1
  B  B1093  1  0.12982865  0.48037862  0.31730559  1
  B  B1094  1  0.12982865  0.48037862  0.56730559  1
  B  B1095  1  0.12982865  0.48037862  0.81730559  1
  B  B1096  1  0.12982865  0.73037862  0.06730559  1
  B  B1097  1  0.12982865  0.73037862  0.31730559  1
  B  B1098  1  0.12982865  0.73037862  0.56730559  1
  B  B1099  1  0.12982865  0.73037862  0.81730559  1
  B  B1100  1  0.12982865  0.98037862  0.06730559  1
  B  B1101  1  0.12982865  0.98037862  0.31730559  1
  B  B1102  1  0.12982865  0.98037862  0.56730559  1
  B  B1103  1  0.12982865  0.98037862  0.81730559  1
  B  B1104  1  0.37982865  0.23037862  0.06730559  1
  B  B1105  1  0.37982865  0.23037862  0.31730559  1
  B  B1106  1  0.37982865  0.23037862  0.56730559  1
  B  B1107  1  0.37982865  0.23037862  0.81730559  1
  B  B1108  1  0.37982865  0.48037862  0.06730559  1
  B  B1109  1  0.37982865  0.48037862  0.31730559  1
  B  B1110  1  0.37982865  0.48037862  0.56730559  1
  B  B1111  1  0.37982865  0.48037862  0.81730559  1
  B  B1112  1  0.37982865  0.73037862  0.06730559  1
  B  B1113  1  0.37982865  0.73037862  0.31730559  1
  B  B1114  1  0.37982865  0.73037862  0.56730559  1
  B  B1115  1  0.37982865  0.73037862  0.81730559  1
  B  B1116  1  0.37982865  0.98037862  0.06730559  1
  B  B1117  1  0.37982865  0.98037862  0.31730559  1
  B  B1118  1  0.37982865  0.98037862  0.56730559  1
  B  B1119  1  0.37982865  0.98037862  0.81730559  1
  B  B1120  1  0.62982865  0.23037862  0.06730559  1
  B  B1121  1  0.62982865  0.23037862  0.31730559  1
  B  B1122  1  0.62982865  0.23037862  0.56730559  1
  B  B1123  1  0.62982865  0.23037862  0.81730559  1
  B  B1124  1  0.62982865  0.48037862  0.06730559  1
  B  B1125  1  0.62982865  0.48037862  0.31730559  1
  B  B1126  1  0.62982865  0.48037862  0.56730559  1
  B  B1127  1  0.62982865  0.48037862  0.81730559  1
  B  B1128  1  0.62982865  0.73037862  0.06730559  1
  B  B1129  1  0.62982865  0.73037862  0.31730559  1
  B  B1130  1  0.62982865  0.73037862  0.56730559  1
  B  B1131  1  0.62982865  0.73037862  0.81730559  1
  B  B1132  1  0.62982865  0.98037862  0.06730559  1
  B  B1133  1  0.62982865  0.98037862  0.31730559  1
  B  B1134  1  0.62982865  0.98037862  0.56730559  1
  B  B1135  1  0.62982865  0.98037862  0.81730559  1
  B  B1136  1  0.87982865  0.23037862  0.06730559  1
  B  B1137  1  0.87982865  0.23037862  0.31730559  1
  B  B1138  1  0.87982865  0.23037862  0.56730559  1
  B  B1139  1  0.87982865  0.23037862  0.81730559  1
  B  B1140  1  0.87982865  0.48037862  0.06730559  1
  B  B1141  1  0.87982865  0.48037862  0.31730559  1
  B  B1142  1  0.87982865  0.48037862  0.56730559  1
  B  B1143  1  0.87982865  0.48037862  0.81730559  1
  B  B1144  1  0.87982865  0.73037862  0.06730559  1
  B  B1145  1  0.87982865  0.73037862  0.31730559  1
  B  B1146  1  0.87982865  0.73037862  0.56730559  1
  B  B1147  1  0.87982865  0.73037862  0.81730559  1
  B  B1148  1  0.87982865  0.98037862  0.06730559  1
  B  B1149  1  0.87982865  0.98037862  0.31730559  1
  B  B1150  1  0.87982865  0.98037862  0.56730559  1
  B  B1151  1  0.87982865  0.98037862  0.81730559  1
  B  B1152  1  0.12017135  0.10537862  0.05769441  1
  B  B1153  1  0.12017135  0.10537862  0.30769441  1
  B  B1154  1  0.12017135  0.10537862  0.55769441  1
  B  B1155  1  0.12017135  0.10537862  0.80769441  1
  B  B1156  1  0.12017135  0.35537862  0.05769441  1
  B  B1157  1  0.12017135  0.35537862  0.30769441  1
  B  B1158  1  0.12017135  0.35537862  0.55769441  1
  B  B1159  1  0.12017135  0.35537862  0.80769441  1
  B  B1160  1  0.12017135  0.60537862  0.05769441  1
  B  B1161  1  0.12017135  0.60537862  0.30769441  1
  B  B1162  1  0.12017135  0.60537862  0.55769441  1
  B  B1163  1  0.12017135  0.60537862  0.80769441  1
  B  B1164  1  0.12017135  0.85537862  0.05769441  1
  B  B1165  1  0.12017135  0.85537862  0.30769441  1
  B  B1166  1  0.12017135  0.85537862  0.55769441  1
  B  B1167  1  0.12017135  0.85537862  0.80769441  1
  B  B1168  1  0.37017135  0.10537862  0.05769441  1
  B  B1169  1  0.37017135  0.10537862  0.30769441  1
  B  B1170  1  0.37017135  0.10537862  0.55769441  1
  B  B1171  1  0.37017135  0.10537862  0.80769441  1
  B  B1172  1  0.37017135  0.35537862  0.05769441  1
  B  B1173  1  0.37017135  0.35537862  0.30769441  1
  B  B1174  1  0.37017135  0.35537862  0.55769441  1
  B  B1175  1  0.37017135  0.35537862  0.80769441  1
  B  B1176  1  0.37017135  0.60537862  0.05769441  1
  B  B1177  1  0.37017135  0.60537862  0.30769441  1
  B  B1178  1  0.37017135  0.60537862  0.55769441  1
  B  B1179  1  0.37017135  0.60537862  0.80769441  1
  B  B1180  1  0.37017135  0.85537862  0.05769441  1
  B  B1181  1  0.37017135  0.85537862  0.30769441  1
  B  B1182  1  0.37017135  0.85537862  0.55769441  1
  B  B1183  1  0.37017135  0.85537862  0.80769441  1
  B  B1184  1  0.62017135  0.10537862  0.05769441  1
  B  B1185  1  0.62017135  0.10537862  0.30769441  1
  B  B1186  1  0.62017135  0.10537862  0.55769441  1
  B  B1187  1  0.62017135  0.10537862  0.80769441  1
  B  B1188  1  0.62017135  0.35537862  0.05769441  1
  B  B1189  1  0.62017135  0.35537862  0.30769441  1
  B  B1190  1  0.62017135  0.35537862  0.55769441  1
  B  B1191  1  0.62017135  0.35537862  0.80769441  1
  B  B1192  1  0.62017135  0.60537862  0.05769441  1
  B  B1193  1  0.62017135  0.60537862  0.30769441  1
  B  B1194  1  0.62017135  0.60537862  0.55769441  1
  B  B1195  1  0.62017135  0.60537862  0.80769441  1
  B  B1196  1  0.62017135  0.85537862  0.05769441  1
  B  B1197  1  0.62017135  0.85537862  0.30769441  1
  B  B1198  1  0.62017135  0.85537862  0.55769441  1
  B  B1199  1  0.62017135  0.85537862  0.80769441  1
  B  B1200  1  0.87017135  0.10537862  0.05769441  1
  B  B1201  1  0.87017135  0.10537862  0.30769441  1
  B  B1202  1  0.87017135  0.10537862  0.55769441  1
  B  B1203  1  0.87017135  0.10537862  0.80769441  1
  B  B1204  1  0.87017135  0.35537862  0.05769441  1
  B  B1205  1  0.87017135  0.35537862  0.30769441  1
  B  B1206  1  0.87017135  0.35537862  0.55769441  1
  B  B1207  1  0.87017135  0.35537862  0.80769441  1
  B  B1208  1  0.87017135  0.60537862  0.05769441  1
  B  B1209  1  0.87017135  0.60537862  0.30769441  1
  B  B1210  1  0.87017135  0.60537862  0.55769441  1
  B  B1211  1  0.87017135  0.60537862  0.80769441  1
  B  B1212  1  0.87017135  0.85537862  0.05769441  1
  B  B1213  1  0.87017135  0.85537862  0.30769441  1
  B  B1214  1  0.87017135  0.85537862  0.55769441  1
  B  B1215  1  0.87017135  0.85537862  0.80769441  1
  B  B1216  1  0.00482865  0.14462138  0.18269441  1
  B  B1217  1  0.00482865  0.14462138  0.43269441  1
  B  B1218  1  0.00482865  0.14462138  0.68269441  1
  B  B1219  1  0.00482865  0.14462138  0.93269441  1
  B  B1220  1  0.00482865  0.39462138  0.18269441  1
  B  B1221  1  0.00482865  0.39462138  0.43269441  1
  B  B1222  1  0.00482865  0.39462138  0.68269441  1
  B  B1223  1  0.00482865  0.39462138  0.93269441  1
  B  B1224  1  0.00482865  0.64462138  0.18269441  1
  B  B1225  1  0.00482865  0.64462138  0.43269441  1
  B  B1226  1  0.00482865  0.64462138  0.68269441  1
  B  B1227  1  0.00482865  0.64462138  0.93269441  1
  B  B1228  1  0.00482865  0.89462138  0.18269441  1
  B  B1229  1  0.00482865  0.89462138  0.43269441  1
  B  B1230  1  0.00482865  0.89462138  0.68269441  1
  B  B1231  1  0.00482865  0.89462138  0.93269441  1
  B  B1232  1  0.25482865  0.14462138  0.18269441  1
  B  B1233  1  0.25482865  0.14462138  0.43269441  1
  B  B1234  1  0.25482865  0.14462138  0.68269441  1
  B  B1235  1  0.25482865  0.14462138  0.93269441  1
  B  B1236  1  0.25482865  0.39462138  0.18269441  1
  B  B1237  1  0.25482865  0.39462138  0.43269441  1
  B  B1238  1  0.25482865  0.39462138  0.68269441  1
  B  B1239  1  0.25482865  0.39462138  0.93269441  1
  B  B1240  1  0.25482865  0.64462138  0.18269441  1
  B  B1241  1  0.25482865  0.64462138  0.43269441  1
  B  B1242  1  0.25482865  0.64462138  0.68269441  1
  B  B1243  1  0.25482865  0.64462138  0.93269441  1
  B  B1244  1  0.25482865  0.89462138  0.18269441  1
  B  B1245  1  0.25482865  0.89462138  0.43269441  1
  B  B1246  1  0.25482865  0.89462138  0.68269441  1
  B  B1247  1  0.25482865  0.89462138  0.93269441  1
  B  B1248  1  0.50482865  0.14462138  0.18269441  1
  B  B1249  1  0.50482865  0.14462138  0.43269441  1
  B  B1250  1  0.50482865  0.14462138  0.68269441  1
  B  B1251  1  0.50482865  0.14462138  0.93269441  1
  B  B1252  1  0.50482865  0.39462138  0.18269441  1
  B  B1253  1  0.50482865  0.39462138  0.43269441  1
  B  B1254  1  0.50482865  0.39462138  0.68269441  1
  B  B1255  1  0.50482865  0.39462138  0.93269441  1
  B  B1256  1  0.50482865  0.64462138  0.18269441  1
  B  B1257  1  0.50482865  0.64462138  0.43269441  1
  B  B1258  1  0.50482865  0.64462138  0.68269441  1
  B  B1259  1  0.50482865  0.64462138  0.93269441  1
  B  B1260  1  0.50482865  0.89462138  0.18269441  1
  B  B1261  1  0.50482865  0.89462138  0.43269441  1
  B  B1262  1  0.50482865  0.89462138  0.68269441  1
  B  B1263  1  0.50482865  0.89462138  0.93269441  1
  B  B1264  1  0.75482865  0.14462138  0.18269441  1
  B  B1265  1  0.75482865  0.14462138  0.43269441  1
  B  B1266  1  0.75482865  0.14462138  0.68269441  1
  B  B1267  1  0.75482865  0.14462138  0.93269441  1
  B  B1268  1  0.75482865  0.39462138  0.18269441  1
  B  B1269  1  0.75482865  0.39462138  0.43269441  1
  B  B1270  1  0.75482865  0.39462138  0.68269441  1
  B  B1271  1  0.75482865  0.39462138  0.93269441  1
  B  B1272  1  0.75482865  0.64462138  0.18269441  1
  B  B1273  1  0.75482865  0.64462138  0.43269441  1
  B  B1274  1  0.75482865  0.64462138  0.68269441  1
  B  B1275  1  0.75482865  0.64462138  0.93269441  1
  B  B1276  1  0.75482865  0.89462138  0.18269441  1
  B  B1277  1  0.75482865  0.89462138  0.43269441  1
  B  B1278  1  0.75482865  0.89462138  0.68269441  1
  B  B1279  1  0.75482865  0.89462138  0.93269441  1
  O  O1280  1  0.00871643  0.21832176  0.23540215  1
  O  O1281  1  0.00871643  0.21832176  0.48540215  1
  O  O1282  1  0.00871643  0.21832176  0.73540215  1
  O  O1283  1  0.00871643  0.21832176  0.98540215  1
  O  O1284  1  0.00871643  0.46832176  0.23540215  1
  O  O1285  1  0.00871643  0.46832176  0.48540215  1
  O  O1286  1  0.00871643  0.46832176  0.73540215  1
  O  O1287  1  0.00871643  0.46832176  0.98540215  1
  O  O1288  1  0.00871643  0.71832176  0.23540215  1
  O  O1289  1  0.00871643  0.71832176  0.48540215  1
  O  O1290  1  0.00871643  0.71832176  0.73540215  1
  O  O1291  1  0.00871643  0.71832176  0.98540215  1
  O  O1292  1  0.00871643  0.96832176  0.23540215  1
  O  O1293  1  0.00871643  0.96832176  0.48540215  1
  O  O1294  1  0.00871643  0.96832176  0.73540215  1
  O  O1295  1  0.00871643  0.96832176  0.98540215  1
  O  O1296  1  0.25871643  0.21832176  0.23540215  1
  O  O1297  1  0.25871643  0.21832176  0.48540215  1
  O  O1298  1  0.25871643  0.21832176  0.73540215  1
  O  O1299  1  0.25871643  0.21832176  0.98540215  1
  O  O1300  1  0.25871643  0.46832176  0.23540215  1
  O  O1301  1  0.25871643  0.46832176  0.48540215  1
  O  O1302  1  0.25871643  0.46832176  0.73540215  1
  O  O1303  1  0.25871643  0.46832176  0.98540215  1
  O  O1304  1  0.25871643  0.71832176  0.23540215  1
  O  O1305  1  0.25871643  0.71832176  0.48540215  1
  O  O1306  1  0.25871643  0.71832176  0.73540215  1
  O  O1307  1  0.25871643  0.71832176  0.98540215  1
  O  O1308  1  0.25871643  0.96832176  0.23540215  1
  O  O1309  1  0.25871643  0.96832176  0.48540215  1
  O  O1310  1  0.25871643  0.96832176  0.73540215  1
  O  O1311  1  0.25871643  0.96832176  0.98540215  1
  O  O1312  1  0.50871644  0.21832176  0.23540215  1
  O  O1313  1  0.50871644  0.21832176  0.48540215  1
  O  O1314  1  0.50871644  0.21832176  0.73540215  1
  O  O1315  1  0.50871644  0.21832176  0.98540215  1
  O  O1316  1  0.50871644  0.46832176  0.23540215  1
  O  O1317  1  0.50871644  0.46832176  0.48540215  1
  O  O1318  1  0.50871644  0.46832176  0.73540215  1
  O  O1319  1  0.50871644  0.46832176  0.98540215  1
  O  O1320  1  0.50871644  0.71832176  0.23540215  1
  O  O1321  1  0.50871644  0.71832176  0.48540215  1
  O  O1322  1  0.50871644  0.71832176  0.73540215  1
  O  O1323  1  0.50871644  0.71832176  0.98540215  1
  O  O1324  1  0.50871644  0.96832176  0.23540215  1
  O  O1325  1  0.50871644  0.96832176  0.48540215  1
  O  O1326  1  0.50871644  0.96832176  0.73540215  1
  O  O1327  1  0.50871644  0.96832176  0.98540215  1
  O  O1328  1  0.75871644  0.21832176  0.23540215  1
  O  O1329  1  0.75871644  0.21832176  0.48540215  1
  O  O1330  1  0.75871644  0.21832176  0.73540215  1
  O  O1331  1  0.75871644  0.21832176  0.98540215  1
  O  O1332  1  0.75871644  0.46832176  0.23540215  1
  O  O1333  1  0.75871644  0.46832176  0.48540215  1
  O  O1334  1  0.75871644  0.46832176  0.73540215  1
  O  O1335  1  0.75871644  0.46832176  0.98540215  1
  O  O1336  1  0.75871644  0.71832176  0.23540215  1
  O  O1337  1  0.75871644  0.71832176  0.48540215  1
  O  O1338  1  0.75871644  0.71832176  0.73540215  1
  O  O1339  1  0.75871644  0.71832176  0.98540215  1
  O  O1340  1  0.75871644  0.96832176  0.23540215  1
  O  O1341  1  0.75871644  0.96832176  0.48540215  1
  O  O1342  1  0.75871644  0.96832176  0.73540215  1
  O  O1343  1  0.75871644  0.96832176  0.98540215  1
  O  O1344  1  0.11628357  0.03167824  0.11040215  1
  O  O1345  1  0.11628357  0.03167824  0.36040215  1
  O  O1346  1  0.11628357  0.03167824  0.61040215  1
  O  O1347  1  0.11628357  0.03167824  0.86040215  1
  O  O1348  1  0.11628357  0.28167824  0.11040215  1
  O  O1349  1  0.11628357  0.28167824  0.36040215  1
  O  O1350  1  0.11628357  0.28167824  0.61040215  1
  O  O1351  1  0.11628357  0.28167824  0.86040215  1
  O  O1352  1  0.11628357  0.53167824  0.11040215  1
  O  O1353  1  0.11628357  0.53167824  0.36040215  1
  O  O1354  1  0.11628357  0.53167824  0.61040215  1
  O  O1355  1  0.11628357  0.53167824  0.86040215  1
  O  O1356  1  0.11628357  0.78167824  0.11040215  1
  O  O1357  1  0.11628357  0.78167824  0.36040215  1
  O  O1358  1  0.11628357  0.78167824  0.61040215  1
  O  O1359  1  0.11628357  0.78167824  0.86040215  1
  O  O1360  1  0.36628356  0.03167824  0.11040215  1
  O  O1361  1  0.36628356  0.03167824  0.36040215  1
  O  O1362  1  0.36628356  0.03167824  0.61040215  1
  O  O1363  1  0.36628356  0.03167824  0.86040215  1
  O  O1364  1  0.36628356  0.28167824  0.11040215  1
  O  O1365  1  0.36628356  0.28167824  0.36040215  1
  O  O1366  1  0.36628356  0.28167824  0.61040215  1
  O  O1367  1  0.36628356  0.28167824  0.86040215  1
  O  O1368  1  0.36628356  0.53167824  0.11040215  1
  O  O1369  1  0.36628356  0.53167824  0.36040215  1
  O  O1370  1  0.36628356  0.53167824  0.61040215  1
  O  O1371  1  0.36628356  0.53167824  0.86040215  1
  O  O1372  1  0.36628356  0.78167824  0.11040215  1
  O  O1373  1  0.36628356  0.78167824  0.36040215  1
  O  O1374  1  0.36628356  0.78167824  0.61040215  1
  O  O1375  1  0.36628356  0.78167824  0.86040215  1
  O  O1376  1  0.61628357  0.03167824  0.11040215  1
  O  O1377  1  0.61628357  0.03167824  0.36040215  1
  O  O1378  1  0.61628357  0.03167824  0.61040215  1
  O  O1379  1  0.61628357  0.03167824  0.86040215  1
  O  O1380  1  0.61628357  0.28167824  0.11040215  1
  O  O1381  1  0.61628357  0.28167824  0.36040215  1
  O  O1382  1  0.61628357  0.28167824  0.61040215  1
  O  O1383  1  0.61628357  0.28167824  0.86040215  1
  O  O1384  1  0.61628357  0.53167824  0.11040215  1
  O  O1385  1  0.61628357  0.53167824  0.36040215  1
  O  O1386  1  0.61628357  0.53167824  0.61040215  1
  O  O1387  1  0.61628357  0.53167824  0.86040215  1
  O  O1388  1  0.61628357  0.78167824  0.11040215  1
  O  O1389  1  0.61628357  0.78167824  0.36040215  1
  O  O1390  1  0.61628357  0.78167824  0.61040215  1
  O  O1391  1  0.61628357  0.78167824  0.86040215  1
  O  O1392  1  0.86628357  0.03167824  0.11040215  1
  O  O1393  1  0.86628357  0.03167824  0.36040215  1
  O  O1394  1  0.86628357  0.03167824  0.61040215  1
  O  O1395  1  0.86628357  0.03167824  0.86040215  1
  O  O1396  1  0.86628357  0.28167824  0.11040215  1
  O  O1397  1  0.86628357  0.28167824  0.36040215  1
  O  O1398  1  0.86628357  0.28167824  0.61040215  1
  O  O1399  1  0.86628357  0.28167824  0.86040215  1
  O  O1400  1  0.86628357  0.53167824  0.11040215  1
  O  O1401  1  0.86628357  0.53167824  0.36040215  1
  O  O1402  1  0.86628357  0.53167824  0.61040215  1
  O  O1403  1  0.86628357  0.53167824  0.86040215  1
  O  O1404  1  0.86628357  0.78167824  0.11040215  1
  O  O1405  1  0.86628357  0.78167824  0.36040215  1
  O  O1406  1  0.86628357  0.78167824  0.61040215  1
  O  O1407  1  0.86628357  0.78167824  0.86040215  1
  O  O1408  1  0.13371643  0.15667824  0.01459785  1
  O  O1409  1  0.13371643  0.15667824  0.26459785  1
  O  O1410  1  0.13371643  0.15667824  0.51459785  1
  O  O1411  1  0.13371643  0.15667824  0.76459785  1
  O  O1412  1  0.13371643  0.40667824  0.01459785  1
  O  O1413  1  0.13371643  0.40667824  0.26459785  1
  O  O1414  1  0.13371643  0.40667824  0.51459785  1
  O  O1415  1  0.13371643  0.40667824  0.76459785  1
  O  O1416  1  0.13371643  0.65667824  0.01459785  1
  O  O1417  1  0.13371643  0.65667824  0.26459785  1
  O  O1418  1  0.13371643  0.65667824  0.51459785  1
  O  O1419  1  0.13371643  0.65667824  0.76459785  1
  O  O1420  1  0.13371643  0.90667824  0.01459785  1
  O  O1421  1  0.13371643  0.90667824  0.26459785  1
  O  O1422  1  0.13371643  0.90667824  0.51459785  1
  O  O1423  1  0.13371643  0.90667824  0.76459785  1
  O  O1424  1  0.38371643  0.15667824  0.01459785  1
  O  O1425  1  0.38371643  0.15667824  0.26459785  1
  O  O1426  1  0.38371643  0.15667824  0.51459785  1
  O  O1427  1  0.38371643  0.15667824  0.76459785  1
  O  O1428  1  0.38371643  0.40667824  0.01459785  1
  O  O1429  1  0.38371643  0.40667824  0.26459785  1
  O  O1430  1  0.38371643  0.40667824  0.51459785  1
  O  O1431  1  0.38371643  0.40667824  0.76459785  1
  O  O1432  1  0.38371643  0.65667824  0.01459785  1
  O  O1433  1  0.38371643  0.65667824  0.26459785  1
  O  O1434  1  0.38371643  0.65667824  0.51459785  1
  O  O1435  1  0.38371643  0.65667824  0.76459785  1
  O  O1436  1  0.38371643  0.90667824  0.01459785  1
  O  O1437  1  0.38371643  0.90667824  0.26459785  1
  O  O1438  1  0.38371643  0.90667824  0.51459785  1
  O  O1439  1  0.38371643  0.90667824  0.76459785  1
  O  O1440  1  0.63371643  0.15667824  0.01459785  1
  O  O1441  1  0.63371643  0.15667824  0.26459785  1
  O  O1442  1  0.63371643  0.15667824  0.51459785  1
  O  O1443  1  0.63371643  0.15667824  0.76459785  1
  O  O1444  1  0.63371643  0.40667824  0.01459785  1
  O  O1445  1  0.63371643  0.40667824  0.26459785  1
  O  O1446  1  0.63371643  0.40667824  0.51459785  1
  O  O1447  1  0.63371643  0.40667824  0.76459785  1
  O  O1448  1  0.63371643  0.65667824  0.01459785  1
  O  O1449  1  0.63371643  0.65667824  0.26459785  1
  O  O1450  1  0.63371643  0.65667824  0.51459785  1
  O  O1451  1  0.63371643  0.65667824  0.76459785  1
  O  O1452  1  0.63371643  0.90667824  0.01459785  1
  O  O1453  1  0.63371643  0.90667824  0.26459785  1
  O  O1454  1  0.63371643  0.90667824  0.51459785  1
  O  O1455  1  0.63371643  0.90667824  0.76459785  1
  O  O1456  1  0.88371643  0.15667824  0.01459785  1
  O  O1457  1  0.88371643  0.15667824  0.26459785  1
  O  O1458  1  0.88371643  0.15667824  0.51459785  1
  O  O1459  1  0.88371643  0.15667824  0.76459785  1
  O  O1460  1  0.88371643  0.40667824  0.01459785  1
  O  O1461  1  0.88371643  0.40667824  0.26459785  1
  O  O1462  1  0.88371643  0.40667824  0.51459785  1
  O  O1463  1  0.88371643  0.40667824  0.76459785  1
  O  O1464  1  0.88371643  0.65667824  0.01459785  1
  O  O1465  1  0.88371643  0.65667824  0.26459785  1
  O  O1466  1  0.88371643  0.65667824  0.51459785  1
  O  O1467  1  0.88371643  0.65667824  0.76459785  1
  O  O1468  1  0.88371643  0.90667824  0.01459785  1
  O  O1469  1  0.88371643  0.90667824  0.26459785  1
  O  O1470  1  0.88371643  0.90667824  0.51459785  1
  O  O1471  1  0.88371643  0.90667824  0.76459785  1
  O  O1472  1  0.24128357  0.09332176  0.13959785  1
  O  O1473  1  0.24128357  0.09332176  0.38959785  1
  O  O1474  1  0.24128357  0.09332176  0.63959785  1
  O  O1475  1  0.24128357  0.09332176  0.88959785  1
  O  O1476  1  0.24128357  0.34332176  0.13959785  1
  O  O1477  1  0.24128357  0.34332176  0.38959785  1
  O  O1478  1  0.24128357  0.34332176  0.63959785  1
  O  O1479  1  0.24128357  0.34332176  0.88959785  1
  O  O1480  1  0.24128357  0.59332176  0.13959785  1
  O  O1481  1  0.24128357  0.59332176  0.38959785  1
  O  O1482  1  0.24128357  0.59332176  0.63959785  1
  O  O1483  1  0.24128357  0.59332176  0.88959785  1
  O  O1484  1  0.24128357  0.84332176  0.13959785  1
  O  O1485  1  0.24128357  0.84332176  0.38959785  1
  O  O1486  1  0.24128357  0.84332176  0.63959785  1
  O  O1487  1  0.24128357  0.84332176  0.88959785  1
  O  O1488  1  0.49128357  0.09332176  0.13959785  1
  O  O1489  1  0.49128357  0.09332176  0.38959785  1
  O  O1490  1  0.49128357  0.09332176  0.63959785  1
  O  O1491  1  0.49128357  0.09332176  0.88959785  1
  O  O1492  1  0.49128357  0.34332176  0.13959785  1
  O  O1493  1  0.49128357  0.34332176  0.38959785  1
  O  O1494  1  0.49128357  0.34332176  0.63959785  1
  O  O1495  1  0.49128357  0.34332176  0.88959785  1
  O  O1496  1  0.49128357  0.59332176  0.13959785  1
  O  O1497  1  0.49128357  0.59332176  0.38959785  1
  O  O1498  1  0.49128357  0.59332176  0.63959785  1
  O  O1499  1  0.49128357  0.59332176  0.88959785  1
  O  O1500  1  0.49128357  0.84332176  0.13959785  1
  O  O1501  1  0.49128357  0.84332176  0.38959785  1
  O  O1502  1  0.49128357  0.84332176  0.63959785  1
  O  O1503  1  0.49128357  0.84332176  0.88959785  1
  O  O1504  1  0.74128357  0.09332176  0.13959785  1
  O  O1505  1  0.74128357  0.09332176  0.38959785  1
  O  O1506  1  0.74128357  0.09332176  0.63959785  1
  O  O1507  1  0.74128357  0.09332176  0.88959785  1
  O  O1508  1  0.74128357  0.34332176  0.13959785  1
  O  O1509  1  0.74128357  0.34332176  0.38959785  1
  O  O1510  1  0.74128357  0.34332176  0.63959785  1
  O  O1511  1  0.74128357  0.34332176  0.88959785  1
  O  O1512  1  0.74128357  0.59332176  0.13959785  1
  O  O1513  1  0.74128357  0.59332176  0.38959785  1
  O  O1514  1  0.74128357  0.59332176  0.63959785  1
  O  O1515  1  0.74128357  0.59332176  0.88959785  1
  O  O1516  1  0.74128357  0.84332176  0.13959785  1
  O  O1517  1  0.74128357  0.84332176  0.38959785  1
  O  O1518  1  0.74128357  0.84332176  0.63959785  1
  O  O1519  1  0.74128357  0.84332176  0.88959785  1
  O  O1520  1  0.99128357  0.09332176  0.13959785  1
  O  O1521  1  0.99128357  0.09332176  0.38959785  1
  O  O1522  1  0.99128357  0.09332176  0.63959785  1
  O  O1523  1  0.99128357  0.09332176  0.88959785  1
  O  O1524  1  0.99128357  0.34332176  0.13959785  1
  O  O1525  1  0.99128357  0.34332176  0.38959785  1
  O  O1526  1  0.99128357  0.34332176  0.63959785  1
  O  O1527  1  0.99128357  0.34332176  0.88959785  1
  O  O1528  1  0.99128357  0.59332176  0.13959785  1
  O  O1529  1  0.99128357  0.59332176  0.38959785  1
  O  O1530  1  0.99128357  0.59332176  0.63959785  1
  O  O1531  1  0.99128357  0.59332176  0.88959785  1
  O  O1532  1  0.99128357  0.84332176  0.13959785  1
  O  O1533  1  0.99128357  0.84332176  0.38959785  1
  O  O1534  1  0.99128357  0.84332176  0.63959785  1
  O  O1535  1  0.99128357  0.84332176  0.88959785  1
  O  O1536  1  0.01049703  0.03341219  0.21781957  1
  O  O1537  1  0.01049703  0.03341219  0.46781957  1
  O  O1538  1  0.01049703  0.03341219  0.71781957  1
  O  O1539  1  0.01049703  0.03341219  0.96781957  1
  O  O1540  1  0.01049703  0.28341219  0.21781957  1
  O  O1541  1  0.01049703  0.28341219  0.46781957  1
  O  O1542  1  0.01049703  0.28341219  0.71781957  1
  O  O1543  1  0.01049703  0.28341219  0.96781957  1
  O  O1544  1  0.01049703  0.53341219  0.21781957  1
  O  O1545  1  0.01049703  0.53341219  0.46781957  1
  O  O1546  1  0.01049703  0.53341219  0.71781957  1
  O  O1547  1  0.01049703  0.53341219  0.96781957  1
  O  O1548  1  0.01049703  0.78341219  0.21781957  1
  O  O1549  1  0.01049703  0.78341219  0.46781957  1
  O  O1550  1  0.01049703  0.78341219  0.71781957  1
  O  O1551  1  0.01049703  0.78341219  0.96781957  1
  O  O1552  1  0.26049702  0.03341219  0.21781957  1
  O  O1553  1  0.26049702  0.03341219  0.46781957  1
  O  O1554  1  0.26049702  0.03341219  0.71781957  1
  O  O1555  1  0.26049702  0.03341219  0.96781957  1
  O  O1556  1  0.26049702  0.28341219  0.21781957  1
  O  O1557  1  0.26049702  0.28341219  0.46781957  1
  O  O1558  1  0.26049702  0.28341219  0.71781957  1
  O  O1559  1  0.26049702  0.28341219  0.96781957  1
  O  O1560  1  0.26049702  0.53341219  0.21781957  1
  O  O1561  1  0.26049702  0.53341219  0.46781957  1
  O  O1562  1  0.26049702  0.53341219  0.71781957  1
  O  O1563  1  0.26049702  0.53341219  0.96781957  1
  O  O1564  1  0.26049702  0.78341219  0.21781957  1
  O  O1565  1  0.26049702  0.78341219  0.46781957  1
  O  O1566  1  0.26049702  0.78341219  0.71781957  1
  O  O1567  1  0.26049702  0.78341219  0.96781957  1
  O  O1568  1  0.51049703  0.03341219  0.21781957  1
  O  O1569  1  0.51049703  0.03341219  0.46781957  1
  O  O1570  1  0.51049703  0.03341219  0.71781957  1
  O  O1571  1  0.51049703  0.03341219  0.96781957  1
  O  O1572  1  0.51049703  0.28341219  0.21781957  1
  O  O1573  1  0.51049703  0.28341219  0.46781957  1
  O  O1574  1  0.51049703  0.28341219  0.71781957  1
  O  O1575  1  0.51049703  0.28341219  0.96781957  1
  O  O1576  1  0.51049703  0.53341219  0.21781957  1
  O  O1577  1  0.51049703  0.53341219  0.46781957  1
  O  O1578  1  0.51049703  0.53341219  0.71781957  1
  O  O1579  1  0.51049703  0.53341219  0.96781957  1
  O  O1580  1  0.51049703  0.78341219  0.21781957  1
  O  O1581  1  0.51049703  0.78341219  0.46781957  1
  O  O1582  1  0.51049703  0.78341219  0.71781957  1
  O  O1583  1  0.51049703  0.78341219  0.96781957  1
  O  O1584  1  0.76049703  0.03341219  0.21781957  1
  O  O1585  1  0.76049703  0.03341219  0.46781957  1
  O  O1586  1  0.76049703  0.03341219  0.71781957  1
  O  O1587  1  0.76049703  0.03341219  0.96781957  1
  O  O1588  1  0.76049703  0.28341219  0.21781957  1
  O  O1589  1  0.76049703  0.28341219  0.46781957  1
  O  O1590  1  0.76049703  0.28341219  0.71781957  1
  O  O1591  1  0.76049703  0.28341219  0.96781957  1
  O  O1592  1  0.76049703  0.53341219  0.21781957  1
  O  O1593  1  0.76049703  0.53341219  0.46781957  1
  O  O1594  1  0.76049703  0.53341219  0.71781957  1
  O  O1595  1  0.76049703  0.53341219  0.96781957  1
  O  O1596  1  0.76049703  0.78341219  0.21781957  1
  O  O1597  1  0.76049703  0.78341219  0.46781957  1
  O  O1598  1  0.76049703  0.78341219  0.71781957  1
  O  O1599  1  0.76049703  0.78341219  0.96781957  1
  O  O1600  1  0.11450297  0.21658781  0.09281957  1
  O  O1601  1  0.11450297  0.21658781  0.34281957  1
  O  O1602  1  0.11450297  0.21658781  0.59281957  1
  O  O1603  1  0.11450297  0.21658781  0.84281957  1
  O  O1604  1  0.11450297  0.46658781  0.09281957  1
  O  O1605  1  0.11450297  0.46658781  0.34281957  1
  O  O1606  1  0.11450297  0.46658781  0.59281957  1
  O  O1607  1  0.11450297  0.46658781  0.84281957  1
  O  O1608  1  0.11450297  0.71658781  0.09281957  1
  O  O1609  1  0.11450297  0.71658781  0.34281957  1
  O  O1610  1  0.11450297  0.71658781  0.59281957  1
  O  O1611  1  0.11450297  0.71658781  0.84281957  1
  O  O1612  1  0.11450297  0.96658781  0.09281957  1
  O  O1613  1  0.11450297  0.96658781  0.34281957  1
  O  O1614  1  0.11450297  0.96658781  0.59281957  1
  O  O1615  1  0.11450297  0.96658781  0.84281957  1
  O  O1616  1  0.36450297  0.21658781  0.09281957  1
  O  O1617  1  0.36450297  0.21658781  0.34281957  1
  O  O1618  1  0.36450297  0.21658781  0.59281957  1
  O  O1619  1  0.36450297  0.21658781  0.84281957  1
  O  O1620  1  0.36450297  0.46658781  0.09281957  1
  O  O1621  1  0.36450297  0.46658781  0.34281957  1
  O  O1622  1  0.36450297  0.46658781  0.59281957  1
  O  O1623  1  0.36450297  0.46658781  0.84281957  1
  O  O1624  1  0.36450297  0.71658781  0.09281957  1
  O  O1625  1  0.36450297  0.71658781  0.34281957  1
  O  O1626  1  0.36450297  0.71658781  0.59281957  1
  O  O1627  1  0.36450297  0.71658781  0.84281957  1
  O  O1628  1  0.36450297  0.96658781  0.09281957  1
  O  O1629  1  0.36450297  0.96658781  0.34281957  1
  O  O1630  1  0.36450297  0.96658781  0.59281957  1
  O  O1631  1  0.36450297  0.96658781  0.84281957  1
  O  O1632  1  0.61450297  0.21658781  0.09281957  1
  O  O1633  1  0.61450297  0.21658781  0.34281957  1
  O  O1634  1  0.61450297  0.21658781  0.59281957  1
  O  O1635  1  0.61450297  0.21658781  0.84281957  1
  O  O1636  1  0.61450297  0.46658781  0.09281957  1
  O  O1637  1  0.61450297  0.46658781  0.34281957  1
  O  O1638  1  0.61450297  0.46658781  0.59281957  1
  O  O1639  1  0.61450297  0.46658781  0.84281957  1
  O  O1640  1  0.61450297  0.71658781  0.09281957  1
  O  O1641  1  0.61450297  0.71658781  0.34281957  1
  O  O1642  1  0.61450297  0.71658781  0.59281957  1
  O  O1643  1  0.61450297  0.71658781  0.84281957  1
  O  O1644  1  0.61450297  0.96658781  0.09281957  1
  O  O1645  1  0.61450297  0.96658781  0.34281957  1
  O  O1646  1  0.61450297  0.96658781  0.59281957  1
  O  O1647  1  0.61450297  0.96658781  0.84281957  1
  O  O1648  1  0.86450297  0.21658781  0.09281957  1
  O  O1649  1  0.86450297  0.21658781  0.34281957  1
  O  O1650  1  0.86450297  0.21658781  0.59281957  1
  O  O1651  1  0.86450297  0.21658781  0.84281957  1
  O  O1652  1  0.86450297  0.46658781  0.09281957  1
  O  O1653  1  0.86450297  0.46658781  0.34281957  1
  O  O1654  1  0.86450297  0.46658781  0.59281957  1
  O  O1655  1  0.86450297  0.46658781  0.84281957  1
  O  O1656  1  0.86450297  0.71658781  0.09281957  1
  O  O1657  1  0.86450297  0.71658781  0.34281957  1
  O  O1658  1  0.86450297  0.71658781  0.59281957  1
  O  O1659  1  0.86450297  0.71658781  0.84281957  1
  O  O1660  1  0.86450297  0.96658781  0.09281957  1
  O  O1661  1  0.86450297  0.96658781  0.34281957  1
  O  O1662  1  0.86450297  0.96658781  0.59281957  1
  O  O1663  1  0.86450297  0.96658781  0.84281957  1
  O  O1664  1  0.13549702  0.09158781  0.03218043  1
  O  O1665  1  0.13549702  0.09158781  0.28218043  1
  O  O1666  1  0.13549702  0.09158781  0.53218043  1
  O  O1667  1  0.13549702  0.09158781  0.78218043  1
  O  O1668  1  0.13549702  0.34158781  0.03218043  1
  O  O1669  1  0.13549702  0.34158781  0.28218043  1
  O  O1670  1  0.13549702  0.34158781  0.53218043  1
  O  O1671  1  0.13549702  0.34158781  0.78218043  1
  O  O1672  1  0.13549702  0.59158781  0.03218043  1
  O  O1673  1  0.13549702  0.59158781  0.28218043  1
  O  O1674  1  0.13549702  0.59158781  0.53218043  1
  O  O1675  1  0.13549702  0.59158781  0.78218043  1
  O  O1676  1  0.13549702  0.84158781  0.03218043  1
  O  O1677  1  0.13549702  0.84158781  0.28218043  1
  O  O1678  1  0.13549702  0.84158781  0.53218043  1
  O  O1679  1  0.13549702  0.84158781  0.78218043  1
  O  O1680  1  0.38549702  0.09158781  0.03218043  1
  O  O1681  1  0.38549702  0.09158781  0.28218043  1
  O  O1682  1  0.38549702  0.09158781  0.53218043  1
  O  O1683  1  0.38549702  0.09158781  0.78218043  1
  O  O1684  1  0.38549702  0.34158781  0.03218043  1
  O  O1685  1  0.38549702  0.34158781  0.28218043  1
  O  O1686  1  0.38549702  0.34158781  0.53218043  1
  O  O1687  1  0.38549702  0.34158781  0.78218043  1
  O  O1688  1  0.38549702  0.59158781  0.03218043  1
  O  O1689  1  0.38549702  0.59158781  0.28218043  1
  O  O1690  1  0.38549702  0.59158781  0.53218043  1
  O  O1691  1  0.38549702  0.59158781  0.78218043  1
  O  O1692  1  0.38549702  0.84158781  0.03218043  1
  O  O1693  1  0.38549702  0.84158781  0.28218043  1
  O  O1694  1  0.38549702  0.84158781  0.53218043  1
  O  O1695  1  0.38549702  0.84158781  0.78218043  1
  O  O1696  1  0.63549703  0.09158781  0.03218043  1
  O  O1697  1  0.63549703  0.09158781  0.28218043  1
  O  O1698  1  0.63549703  0.09158781  0.53218043  1
  O  O1699  1  0.63549703  0.09158781  0.78218043  1
  O  O1700  1  0.63549703  0.34158781  0.03218043  1
  O  O1701  1  0.63549703  0.34158781  0.28218043  1
  O  O1702  1  0.63549703  0.34158781  0.53218043  1
  O  O1703  1  0.63549703  0.34158781  0.78218043  1
  O  O1704  1  0.63549703  0.59158781  0.03218043  1
  O  O1705  1  0.63549703  0.59158781  0.28218043  1
  O  O1706  1  0.63549703  0.59158781  0.53218043  1
  O  O1707  1  0.63549703  0.59158781  0.78218043  1
  O  O1708  1  0.63549703  0.84158781  0.03218043  1
  O  O1709  1  0.63549703  0.84158781  0.28218043  1
  O  O1710  1  0.63549703  0.84158781  0.53218043  1
  O  O1711  1  0.63549703  0.84158781  0.78218043  1
  O  O1712  1  0.88549703  0.09158781  0.03218043  1
  O  O1713  1  0.88549703  0.09158781  0.28218043  1
  O  O1714  1  0.88549703  0.09158781  0.53218043  1
  O  O1715  1  0.88549703  0.09158781  0.78218043  1
  O  O1716  1  0.88549703  0.34158781  0.03218043  1
  O  O1717  1  0.88549703  0.34158781  0.28218043  1
  O  O1718  1  0.88549703  0.34158781  0.53218043  1
  O  O1719  1  0.88549703  0.34158781  0.78218043  1
  O  O1720  1  0.88549703  0.59158781  0.03218043  1
  O  O1721  1  0.88549703  0.59158781  0.28218043  1
  O  O1722  1  0.88549703  0.59158781  0.53218043  1
  O  O1723  1  0.88549703  0.59158781  0.78218043  1
  O  O1724  1  0.88549703  0.84158781  0.03218043  1
  O  O1725  1  0.88549703  0.84158781  0.28218043  1
  O  O1726  1  0.88549703  0.84158781  0.53218043  1
  O  O1727  1  0.88549703  0.84158781  0.78218043  1
  O  O1728  1  0.23950297  0.15841219  0.15718043  1
  O  O1729  1  0.23950297  0.15841219  0.40718043  1
  O  O1730  1  0.23950297  0.15841219  0.65718043  1
  O  O1731  1  0.23950297  0.15841219  0.90718043  1
  O  O1732  1  0.23950297  0.40841219  0.15718043  1
  O  O1733  1  0.23950297  0.40841219  0.40718043  1
  O  O1734  1  0.23950297  0.40841219  0.65718043  1
  O  O1735  1  0.23950297  0.40841219  0.90718043  1
  O  O1736  1  0.23950297  0.65841219  0.15718043  1
  O  O1737  1  0.23950297  0.65841219  0.40718043  1
  O  O1738  1  0.23950297  0.65841219  0.65718043  1
  O  O1739  1  0.23950297  0.65841219  0.90718043  1
  O  O1740  1  0.23950297  0.90841219  0.15718043  1
  O  O1741  1  0.23950297  0.90841219  0.40718043  1
  O  O1742  1  0.23950297  0.90841219  0.65718043  1
  O  O1743  1  0.23950297  0.90841219  0.90718043  1
  O  O1744  1  0.48950297  0.15841219  0.15718043  1
  O  O1745  1  0.48950297  0.15841219  0.40718043  1
  O  O1746  1  0.48950297  0.15841219  0.65718043  1
  O  O1747  1  0.48950297  0.15841219  0.90718043  1
  O  O1748  1  0.48950297  0.40841219  0.15718043  1
  O  O1749  1  0.48950297  0.40841219  0.40718043  1
  O  O1750  1  0.48950297  0.40841219  0.65718043  1
  O  O1751  1  0.48950297  0.40841219  0.90718043  1
  O  O1752  1  0.48950297  0.65841219  0.15718043  1
  O  O1753  1  0.48950297  0.65841219  0.40718043  1
  O  O1754  1  0.48950297  0.65841219  0.65718043  1
  O  O1755  1  0.48950297  0.65841219  0.90718043  1
  O  O1756  1  0.48950297  0.90841219  0.15718043  1
  O  O1757  1  0.48950297  0.90841219  0.40718043  1
  O  O1758  1  0.48950297  0.90841219  0.65718043  1
  O  O1759  1  0.48950297  0.90841219  0.90718043  1
  O  O1760  1  0.73950297  0.15841219  0.15718043  1
  O  O1761  1  0.73950297  0.15841219  0.40718043  1
  O  O1762  1  0.73950297  0.15841219  0.65718043  1
  O  O1763  1  0.73950297  0.15841219  0.90718043  1
  O  O1764  1  0.73950297  0.40841219  0.15718043  1
  O  O1765  1  0.73950297  0.40841219  0.40718043  1
  O  O1766  1  0.73950297  0.40841219  0.65718043  1
  O  O1767  1  0.73950297  0.40841219  0.90718043  1
  O  O1768  1  0.73950297  0.65841219  0.15718043  1
  O  O1769  1  0.73950297  0.65841219  0.40718043  1
  O  O1770  1  0.73950297  0.65841219  0.65718043  1
  O  O1771  1  0.73950297  0.65841219  0.90718043  1
  O  O1772  1  0.73950297  0.90841219  0.15718043  1
  O  O1773  1  0.73950297  0.90841219  0.40718043  1
  O  O1774  1  0.73950297  0.90841219  0.65718043  1
  O  O1775  1  0.73950297  0.90841219  0.90718043  1
  O  O1776  1  0.98950297  0.15841219  0.15718043  1
  O  O1777  1  0.98950297  0.15841219  0.40718043  1
  O  O1778  1  0.98950297  0.15841219  0.65718043  1
  O  O1779  1  0.98950297  0.15841219  0.90718043  1
  O  O1780  1  0.98950297  0.40841219  0.15718043  1
  O  O1781  1  0.98950297  0.40841219  0.40718043  1
  O  O1782  1  0.98950297  0.40841219  0.65718043  1
  O  O1783  1  0.98950297  0.40841219  0.90718043  1
  O  O1784  1  0.98950297  0.65841219  0.15718043  1
  O  O1785  1  0.98950297  0.65841219  0.40718043  1
  O  O1786  1  0.98950297  0.65841219  0.65718043  1
  O  O1787  1  0.98950297  0.65841219  0.90718043  1
  O  O1788  1  0.98950297  0.90841219  0.15718043  1
  O  O1789  1  0.98950297  0.90841219  0.40718043  1
  O  O1790  1  0.98950297  0.90841219  0.65718043  1
  O  O1791  1  0.98950297  0.90841219  0.90718043  1
  O  O1792  1  0.23558210  0.23141448  0.18784567  1
  O  O1793  1  0.23558210  0.23141448  0.43784567  1
  O  O1794  1  0.23558210  0.23141448  0.68784567  1
  O  O1795  1  0.23558210  0.23141448  0.93784567  1
  O  O1796  1  0.23558210  0.48141448  0.18784567  1
  O  O1797  1  0.23558210  0.48141448  0.43784567  1
  O  O1798  1  0.23558210  0.48141448  0.68784567  1
  O  O1799  1  0.23558210  0.48141448  0.93784567  1
  O  O1800  1  0.23558210  0.73141448  0.18784567  1
  O  O1801  1  0.23558210  0.73141448  0.43784567  1
  O  O1802  1  0.23558210  0.73141448  0.68784567  1
  O  O1803  1  0.23558210  0.73141448  0.93784567  1
  O  O1804  1  0.23558210  0.98141448  0.18784567  1
  O  O1805  1  0.23558210  0.98141448  0.43784567  1
  O  O1806  1  0.23558210  0.98141448  0.68784567  1
  O  O1807  1  0.23558210  0.98141448  0.93784567  1
  O  O1808  1  0.48558210  0.23141448  0.18784567  1
  O  O1809  1  0.48558210  0.23141448  0.43784567  1
  O  O1810  1  0.48558210  0.23141448  0.68784567  1
  O  O1811  1  0.48558210  0.23141448  0.93784567  1
  O  O1812  1  0.48558210  0.48141448  0.18784567  1
  O  O1813  1  0.48558210  0.48141448  0.43784567  1
  O  O1814  1  0.48558210  0.48141448  0.68784567  1
  O  O1815  1  0.48558210  0.48141448  0.93784567  1
  O  O1816  1  0.48558210  0.73141448  0.18784567  1
  O  O1817  1  0.48558210  0.73141448  0.43784567  1
  O  O1818  1  0.48558210  0.73141448  0.68784567  1
  O  O1819  1  0.48558210  0.73141448  0.93784567  1
  O  O1820  1  0.48558210  0.98141448  0.18784567  1
  O  O1821  1  0.48558210  0.98141448  0.43784567  1
  O  O1822  1  0.48558210  0.98141448  0.68784567  1
  O  O1823  1  0.48558210  0.98141448  0.93784567  1
  O  O1824  1  0.73558210  0.23141448  0.18784567  1
  O  O1825  1  0.73558210  0.23141448  0.43784567  1
  O  O1826  1  0.73558210  0.23141448  0.68784567  1
  O  O1827  1  0.73558210  0.23141448  0.93784567  1
  O  O1828  1  0.73558210  0.48141448  0.18784567  1
  O  O1829  1  0.73558210  0.48141448  0.43784567  1
  O  O1830  1  0.73558210  0.48141448  0.68784567  1
  O  O1831  1  0.73558210  0.48141448  0.93784567  1
  O  O1832  1  0.73558210  0.73141448  0.18784567  1
  O  O1833  1  0.73558210  0.73141448  0.43784567  1
  O  O1834  1  0.73558210  0.73141448  0.68784567  1
  O  O1835  1  0.73558210  0.73141448  0.93784567  1
  O  O1836  1  0.73558210  0.98141448  0.18784567  1
  O  O1837  1  0.73558210  0.98141448  0.43784567  1
  O  O1838  1  0.73558210  0.98141448  0.68784567  1
  O  O1839  1  0.73558210  0.98141448  0.93784567  1
  O  O1840  1  0.98558210  0.23141448  0.18784567  1
  O  O1841  1  0.98558210  0.23141448  0.43784567  1
  O  O1842  1  0.98558210  0.23141448  0.68784567  1
  O  O1843  1  0.98558210  0.23141448  0.93784567  1
  O  O1844  1  0.98558210  0.48141448  0.18784567  1
  O  O1845  1  0.98558210  0.48141448  0.43784567  1
  O  O1846  1  0.98558210  0.48141448  0.68784567  1
  O  O1847  1  0.98558210  0.48141448  0.93784567  1
  O  O1848  1  0.98558210  0.73141448  0.18784567  1
  O  O1849  1  0.98558210  0.73141448  0.43784567  1
  O  O1850  1  0.98558210  0.73141448  0.68784567  1
  O  O1851  1  0.98558210  0.73141448  0.93784567  1
  O  O1852  1  0.98558210  0.98141448  0.18784567  1
  O  O1853  1  0.98558210  0.98141448  0.43784567  1
  O  O1854  1  0.98558210  0.98141448  0.68784567  1
  O  O1855  1  0.98558210  0.98141448  0.93784567  1
  O  O1856  1  0.13941790  0.01858552  0.06284567  1
  O  O1857  1  0.13941790  0.01858552  0.31284567  1
  O  O1858  1  0.13941790  0.01858552  0.56284567  1
  O  O1859  1  0.13941790  0.01858552  0.81284567  1
  O  O1860  1  0.13941790  0.26858552  0.06284567  1
  O  O1861  1  0.13941790  0.26858552  0.31284567  1
  O  O1862  1  0.13941790  0.26858552  0.56284567  1
  O  O1863  1  0.13941790  0.26858552  0.81284567  1
  O  O1864  1  0.13941790  0.51858552  0.06284567  1
  O  O1865  1  0.13941790  0.51858552  0.31284567  1
  O  O1866  1  0.13941790  0.51858552  0.56284567  1
  O  O1867  1  0.13941790  0.51858552  0.81284567  1
  O  O1868  1  0.13941790  0.76858552  0.06284567  1
  O  O1869  1  0.13941790  0.76858552  0.31284567  1
  O  O1870  1  0.13941790  0.76858552  0.56284567  1
  O  O1871  1  0.13941790  0.76858552  0.81284567  1
  O  O1872  1  0.38941790  0.01858552  0.06284567  1
  O  O1873  1  0.38941790  0.01858552  0.31284567  1
  O  O1874  1  0.38941790  0.01858552  0.56284567  1
  O  O1875  1  0.38941790  0.01858552  0.81284567  1
  O  O1876  1  0.38941790  0.26858552  0.06284567  1
  O  O1877  1  0.38941790  0.26858552  0.31284567  1
  O  O1878  1  0.38941790  0.26858552  0.56284567  1
  O  O1879  1  0.38941790  0.26858552  0.81284567  1
  O  O1880  1  0.38941790  0.51858552  0.06284567  1
  O  O1881  1  0.38941790  0.51858552  0.31284567  1
  O  O1882  1  0.38941790  0.51858552  0.56284567  1
  O  O1883  1  0.38941790  0.51858552  0.81284567  1
  O  O1884  1  0.38941790  0.76858552  0.06284567  1
  O  O1885  1  0.38941790  0.76858552  0.31284567  1
  O  O1886  1  0.38941790  0.76858552  0.56284567  1
  O  O1887  1  0.38941790  0.76858552  0.81284567  1
  O  O1888  1  0.63941790  0.01858552  0.06284567  1
  O  O1889  1  0.63941790  0.01858552  0.31284567  1
  O  O1890  1  0.63941790  0.01858552  0.56284567  1
  O  O1891  1  0.63941790  0.01858552  0.81284567  1
  O  O1892  1  0.63941790  0.26858552  0.06284567  1
  O  O1893  1  0.63941790  0.26858552  0.31284567  1
  O  O1894  1  0.63941790  0.26858552  0.56284567  1
  O  O1895  1  0.63941790  0.26858552  0.81284567  1
  O  O1896  1  0.63941790  0.51858552  0.06284567  1
  O  O1897  1  0.63941790  0.51858552  0.31284567  1
  O  O1898  1  0.63941790  0.51858552  0.56284567  1
  O  O1899  1  0.63941790  0.51858552  0.81284567  1
  O  O1900  1  0.63941790  0.76858552  0.06284567  1
  O  O1901  1  0.63941790  0.76858552  0.31284567  1
  O  O1902  1  0.63941790  0.76858552  0.56284567  1
  O  O1903  1  0.63941790  0.76858552  0.81284567  1
  O  O1904  1  0.88941790  0.01858552  0.06284567  1
  O  O1905  1  0.88941790  0.01858552  0.31284567  1
  O  O1906  1  0.88941790  0.01858552  0.56284567  1
  O  O1907  1  0.88941790  0.01858552  0.81284567  1
  O  O1908  1  0.88941790  0.26858552  0.06284567  1
  O  O1909  1  0.88941790  0.26858552  0.31284567  1
  O  O1910  1  0.88941790  0.26858552  0.56284567  1
  O  O1911  1  0.88941790  0.26858552  0.81284567  1
  O  O1912  1  0.88941790  0.51858552  0.06284567  1
  O  O1913  1  0.88941790  0.51858552  0.31284567  1
  O  O1914  1  0.88941790  0.51858552  0.56284567  1
  O  O1915  1  0.88941790  0.51858552  0.81284567  1
  O  O1916  1  0.88941790  0.76858552  0.06284567  1
  O  O1917  1  0.88941790  0.76858552  0.31284567  1
  O  O1918  1  0.88941790  0.76858552  0.56284567  1
  O  O1919  1  0.88941790  0.76858552  0.81284567  1
  O  O1920  1  0.11058210  0.14358552  0.06215433  1
  O  O1921  1  0.11058210  0.14358552  0.31215433  1
  O  O1922  1  0.11058210  0.14358552  0.56215433  1
  O  O1923  1  0.11058210  0.14358552  0.81215433  1
  O  O1924  1  0.11058210  0.39358552  0.06215433  1
  O  O1925  1  0.11058210  0.39358552  0.31215433  1
  O  O1926  1  0.11058210  0.39358552  0.56215433  1
  O  O1927  1  0.11058210  0.39358552  0.81215433  1
  O  O1928  1  0.11058210  0.64358552  0.06215433  1
  O  O1929  1  0.11058210  0.64358552  0.31215433  1
  O  O1930  1  0.11058210  0.64358552  0.56215433  1
  O  O1931  1  0.11058210  0.64358552  0.81215433  1
  O  O1932  1  0.11058210  0.89358552  0.06215433  1
  O  O1933  1  0.11058210  0.89358552  0.31215433  1
  O  O1934  1  0.11058210  0.89358552  0.56215433  1
  O  O1935  1  0.11058210  0.89358552  0.81215433  1
  O  O1936  1  0.36058210  0.14358552  0.06215433  1
  O  O1937  1  0.36058210  0.14358552  0.31215433  1
  O  O1938  1  0.36058210  0.14358552  0.56215433  1
  O  O1939  1  0.36058210  0.14358552  0.81215433  1
  O  O1940  1  0.36058210  0.39358552  0.06215433  1
  O  O1941  1  0.36058210  0.39358552  0.31215433  1
  O  O1942  1  0.36058210  0.39358552  0.56215433  1
  O  O1943  1  0.36058210  0.39358552  0.81215433  1
  O  O1944  1  0.36058210  0.64358552  0.06215433  1
  O  O1945  1  0.36058210  0.64358552  0.31215433  1
  O  O1946  1  0.36058210  0.64358552  0.56215433  1
  O  O1947  1  0.36058210  0.64358552  0.81215433  1
  O  O1948  1  0.36058210  0.89358552  0.06215433  1
  O  O1949  1  0.36058210  0.89358552  0.31215433  1
  O  O1950  1  0.36058210  0.89358552  0.56215433  1
  O  O1951  1  0.36058210  0.89358552  0.81215433  1
  O  O1952  1  0.61058210  0.14358552  0.06215433  1
  O  O1953  1  0.61058210  0.14358552  0.31215433  1
  O  O1954  1  0.61058210  0.14358552  0.56215433  1
  O  O1955  1  0.61058210  0.14358552  0.81215433  1
  O  O1956  1  0.61058210  0.39358552  0.06215433  1
  O  O1957  1  0.61058210  0.39358552  0.31215433  1
  O  O1958  1  0.61058210  0.39358552  0.56215433  1
  O  O1959  1  0.61058210  0.39358552  0.81215433  1
  O  O1960  1  0.61058210  0.64358552  0.06215433  1
  O  O1961  1  0.61058210  0.64358552  0.31215433  1
  O  O1962  1  0.61058210  0.64358552  0.56215433  1
  O  O1963  1  0.61058210  0.64358552  0.81215433  1
  O  O1964  1  0.61058210  0.89358552  0.06215433  1
  O  O1965  1  0.61058210  0.89358552  0.31215433  1
  O  O1966  1  0.61058210  0.89358552  0.56215433  1
  O  O1967  1  0.61058210  0.89358552  0.81215433  1
  O  O1968  1  0.86058210  0.14358552  0.06215433  1
  O  O1969  1  0.86058210  0.14358552  0.31215433  1
  O  O1970  1  0.86058210  0.14358552  0.56215433  1
  O  O1971  1  0.86058210  0.14358552  0.81215433  1
  O  O1972  1  0.86058210  0.39358552  0.06215433  1
  O  O1973  1  0.86058210  0.39358552  0.31215433  1
  O  O1974  1  0.86058210  0.39358552  0.56215433  1
  O  O1975  1  0.86058210  0.39358552  0.81215433  1
  O  O1976  1  0.86058210  0.64358552  0.06215433  1
  O  O1977  1  0.86058210  0.64358552  0.31215433  1
  O  O1978  1  0.86058210  0.64358552  0.56215433  1
  O  O1979  1  0.86058210  0.64358552  0.81215433  1
  O  O1980  1  0.86058210  0.89358552  0.06215433  1
  O  O1981  1  0.86058210  0.89358552  0.31215433  1
  O  O1982  1  0.86058210  0.89358552  0.56215433  1
  O  O1983  1  0.86058210  0.89358552  0.81215433  1
  O  O1984  1  0.01441790  0.10641448  0.18715433  1
  O  O1985  1  0.01441790  0.10641448  0.43715433  1
  O  O1986  1  0.01441790  0.10641448  0.68715433  1
  O  O1987  1  0.01441790  0.10641448  0.93715433  1
  O  O1988  1  0.01441790  0.35641448  0.18715433  1
  O  O1989  1  0.01441790  0.35641448  0.43715433  1
  O  O1990  1  0.01441790  0.35641448  0.68715433  1
  O  O1991  1  0.01441790  0.35641448  0.93715433  1
  O  O1992  1  0.01441790  0.60641448  0.18715433  1
  O  O1993  1  0.01441790  0.60641448  0.43715433  1
  O  O1994  1  0.01441790  0.60641448  0.68715433  1
  O  O1995  1  0.01441790  0.60641448  0.93715433  1
  O  O1996  1  0.01441790  0.85641448  0.18715433  1
  O  O1997  1  0.01441790  0.85641448  0.43715433  1
  O  O1998  1  0.01441790  0.85641448  0.68715433  1
  O  O1999  1  0.01441790  0.85641448  0.93715433  1
  O  O2000  1  0.26441790  0.10641448  0.18715433  1
  O  O2001  1  0.26441790  0.10641448  0.43715433  1
  O  O2002  1  0.26441790  0.10641448  0.68715433  1
  O  O2003  1  0.26441790  0.10641448  0.93715433  1
  O  O2004  1  0.26441790  0.35641448  0.18715433  1
  O  O2005  1  0.26441790  0.35641448  0.43715433  1
  O  O2006  1  0.26441790  0.35641448  0.68715433  1
  O  O2007  1  0.26441790  0.35641448  0.93715433  1
  O  O2008  1  0.26441790  0.60641448  0.18715433  1
  O  O2009  1  0.26441790  0.60641448  0.43715433  1
  O  O2010  1  0.26441790  0.60641448  0.68715433  1
  O  O2011  1  0.26441790  0.60641448  0.93715433  1
  O  O2012  1  0.26441790  0.85641448  0.18715433  1
  O  O2013  1  0.26441790  0.85641448  0.43715433  1
  O  O2014  1  0.26441790  0.85641448  0.68715433  1
  O  O2015  1  0.26441790  0.85641448  0.93715433  1
  O  O2016  1  0.51441790  0.10641448  0.18715433  1
  O  O2017  1  0.51441790  0.10641448  0.43715433  1
  O  O2018  1  0.51441790  0.10641448  0.68715433  1
  O  O2019  1  0.51441790  0.10641448  0.93715433  1
  O  O2020  1  0.51441790  0.35641448  0.18715433  1
  O  O2021  1  0.51441790  0.35641448  0.43715433  1
  O  O2022  1  0.51441790  0.35641448  0.68715433  1
  O  O2023  1  0.51441790  0.35641448  0.93715433  1
  O  O2024  1  0.51441790  0.60641448  0.18715433  1
  O  O2025  1  0.51441790  0.60641448  0.43715433  1
  O  O2026  1  0.51441790  0.60641448  0.68715433  1
  O  O2027  1  0.51441790  0.60641448  0.93715433  1
  O  O2028  1  0.51441790  0.85641448  0.18715433  1
  O  O2029  1  0.51441790  0.85641448  0.43715433  1
  O  O2030  1  0.51441790  0.85641448  0.68715433  1
  O  O2031  1  0.51441790  0.85641448  0.93715433  1
  O  O2032  1  0.76441790  0.10641448  0.18715433  1
  O  O2033  1  0.76441790  0.10641448  0.43715433  1
  O  O2034  1  0.76441790  0.10641448  0.68715433  1
  O  O2035  1  0.76441790  0.10641448  0.93715433  1
  O  O2036  1  0.76441790  0.35641448  0.18715433  1
  O  O2037  1  0.76441790  0.35641448  0.43715433  1
  O  O2038  1  0.76441790  0.35641448  0.68715433  1
  O  O2039  1  0.76441790  0.35641448  0.93715433  1
  O  O2040  1  0.76441790  0.60641448  0.18715433  1
  O  O2041  1  0.76441790  0.60641448  0.43715433  1
  O  O2042  1  0.76441790  0.60641448  0.68715433  1
  O  O2043  1  0.76441790  0.60641448  0.93715433  1
  O  O2044  1  0.76441790  0.85641448  0.18715433  1
  O  O2045  1  0.76441790  0.85641448  0.43715433  1
  O  O2046  1  0.76441790  0.85641448  0.68715433  1
  O  O2047  1  0.76441790  0.85641448  0.93715433  1
  O  O2048  1  0.23852502  0.04295393  0.17031036  1
  O  O2049  1  0.23852502  0.04295393  0.42031036  1
  O  O2050  1  0.23852502  0.04295393  0.67031036  1
  O  O2051  1  0.23852502  0.04295393  0.92031036  1
  O  O2052  1  0.23852502  0.29295393  0.17031036  1
  O  O2053  1  0.23852502  0.29295393  0.42031036  1
  O  O2054  1  0.23852502  0.29295393  0.67031036  1
  O  O2055  1  0.23852502  0.29295393  0.92031036  1
  O  O2056  1  0.23852502  0.54295393  0.17031036  1
  O  O2057  1  0.23852502  0.54295393  0.42031036  1
  O  O2058  1  0.23852502  0.54295393  0.67031036  1
  O  O2059  1  0.23852502  0.54295393  0.92031036  1
  O  O2060  1  0.23852502  0.79295393  0.17031036  1
  O  O2061  1  0.23852502  0.79295393  0.42031036  1
  O  O2062  1  0.23852502  0.79295393  0.67031036  1
  O  O2063  1  0.23852502  0.79295393  0.92031036  1
  O  O2064  1  0.48852502  0.04295393  0.17031036  1
  O  O2065  1  0.48852502  0.04295393  0.42031036  1
  O  O2066  1  0.48852502  0.04295393  0.67031036  1
  O  O2067  1  0.48852502  0.04295393  0.92031036  1
  O  O2068  1  0.48852502  0.29295393  0.17031036  1
  O  O2069  1  0.48852502  0.29295393  0.42031036  1
  O  O2070  1  0.48852502  0.29295393  0.67031036  1
  O  O2071  1  0.48852502  0.29295393  0.92031036  1
  O  O2072  1  0.48852502  0.54295393  0.17031036  1
  O  O2073  1  0.48852502  0.54295393  0.42031036  1
  O  O2074  1  0.48852502  0.54295393  0.67031036  1
  O  O2075  1  0.48852502  0.54295393  0.92031036  1
  O  O2076  1  0.48852502  0.79295393  0.17031036  1
  O  O2077  1  0.48852502  0.79295393  0.42031036  1
  O  O2078  1  0.48852502  0.79295393  0.67031036  1
  O  O2079  1  0.48852502  0.79295393  0.92031036  1
  O  O2080  1  0.73852502  0.04295393  0.17031036  1
  O  O2081  1  0.73852502  0.04295393  0.42031036  1
  O  O2082  1  0.73852502  0.04295393  0.67031036  1
  O  O2083  1  0.73852502  0.04295393  0.92031036  1
  O  O2084  1  0.73852502  0.29295393  0.17031036  1
  O  O2085  1  0.73852502  0.29295393  0.42031036  1
  O  O2086  1  0.73852502  0.29295393  0.67031036  1
  O  O2087  1  0.73852502  0.29295393  0.92031036  1
  O  O2088  1  0.73852502  0.54295393  0.17031036  1
  O  O2089  1  0.73852502  0.54295393  0.42031036  1
  O  O2090  1  0.73852502  0.54295393  0.67031036  1
  O  O2091  1  0.73852502  0.54295393  0.92031036  1
  O  O2092  1  0.73852502  0.79295393  0.17031036  1
  O  O2093  1  0.73852502  0.79295393  0.42031036  1
  O  O2094  1  0.73852502  0.79295393  0.67031036  1
  O  O2095  1  0.73852502  0.79295393  0.92031036  1
  O  O2096  1  0.98852502  0.04295393  0.17031036  1
  O  O2097  1  0.98852502  0.04295393  0.42031036  1
  O  O2098  1  0.98852502  0.04295393  0.67031036  1
  O  O2099  1  0.98852502  0.04295393  0.92031036  1
  O  O2100  1  0.98852502  0.29295393  0.17031036  1
  O  O2101  1  0.98852502  0.29295393  0.42031036  1
  O  O2102  1  0.98852502  0.29295393  0.67031036  1
  O  O2103  1  0.98852502  0.29295393  0.92031036  1
  O  O2104  1  0.98852502  0.54295393  0.17031036  1
  O  O2105  1  0.98852502  0.54295393  0.42031036  1
  O  O2106  1  0.98852502  0.54295393  0.67031036  1
  O  O2107  1  0.98852502  0.54295393  0.92031036  1
  O  O2108  1  0.98852502  0.79295393  0.17031036  1
  O  O2109  1  0.98852502  0.79295393  0.42031036  1
  O  O2110  1  0.98852502  0.79295393  0.67031036  1
  O  O2111  1  0.98852502  0.79295393  0.92031036  1
  O  O2112  1  0.13647498  0.20704607  0.04531036  1
  O  O2113  1  0.13647498  0.20704607  0.29531036  1
  O  O2114  1  0.13647498  0.20704607  0.54531036  1
  O  O2115  1  0.13647498  0.20704607  0.79531036  1
  O  O2116  1  0.13647498  0.45704607  0.04531036  1
  O  O2117  1  0.13647498  0.45704607  0.29531036  1
  O  O2118  1  0.13647498  0.45704607  0.54531036  1
  O  O2119  1  0.13647498  0.45704607  0.79531036  1
  O  O2120  1  0.13647498  0.70704607  0.04531036  1
  O  O2121  1  0.13647498  0.70704607  0.29531036  1
  O  O2122  1  0.13647498  0.70704607  0.54531036  1
  O  O2123  1  0.13647498  0.70704607  0.79531036  1
  O  O2124  1  0.13647498  0.95704607  0.04531036  1
  O  O2125  1  0.13647498  0.95704607  0.29531036  1
  O  O2126  1  0.13647498  0.95704607  0.54531036  1
  O  O2127  1  0.13647498  0.95704607  0.79531036  1
  O  O2128  1  0.38647498  0.20704607  0.04531036  1
  O  O2129  1  0.38647498  0.20704607  0.29531036  1
  O  O2130  1  0.38647498  0.20704607  0.54531036  1
  O  O2131  1  0.38647498  0.20704607  0.79531036  1
  O  O2132  1  0.38647498  0.45704607  0.04531036  1
  O  O2133  1  0.38647498  0.45704607  0.29531036  1
  O  O2134  1  0.38647498  0.45704607  0.54531036  1
  O  O2135  1  0.38647498  0.45704607  0.79531036  1
  O  O2136  1  0.38647498  0.70704607  0.04531036  1
  O  O2137  1  0.38647498  0.70704607  0.29531036  1
  O  O2138  1  0.38647498  0.70704607  0.54531036  1
  O  O2139  1  0.38647498  0.70704607  0.79531036  1
  O  O2140  1  0.38647498  0.95704607  0.04531036  1
  O  O2141  1  0.38647498  0.95704607  0.29531036  1
  O  O2142  1  0.38647498  0.95704607  0.54531036  1
  O  O2143  1  0.38647498  0.95704607  0.79531036  1
  O  O2144  1  0.63647498  0.20704607  0.04531036  1
  O  O2145  1  0.63647498  0.20704607  0.29531036  1
  O  O2146  1  0.63647498  0.20704607  0.54531036  1
  O  O2147  1  0.63647498  0.20704607  0.79531036  1
  O  O2148  1  0.63647498  0.45704607  0.04531036  1
  O  O2149  1  0.63647498  0.45704607  0.29531036  1
  O  O2150  1  0.63647498  0.45704607  0.54531036  1
  O  O2151  1  0.63647498  0.45704607  0.79531036  1
  O  O2152  1  0.63647498  0.70704607  0.04531036  1
  O  O2153  1  0.63647498  0.70704607  0.29531036  1
  O  O2154  1  0.63647498  0.70704607  0.54531036  1
  O  O2155  1  0.63647498  0.70704607  0.79531036  1
  O  O2156  1  0.63647498  0.95704607  0.04531036  1
  O  O2157  1  0.63647498  0.95704607  0.29531036  1
  O  O2158  1  0.63647498  0.95704607  0.54531036  1
  O  O2159  1  0.63647498  0.95704607  0.79531036  1
  O  O2160  1  0.88647498  0.20704607  0.04531036  1
  O  O2161  1  0.88647498  0.20704607  0.29531036  1
  O  O2162  1  0.88647498  0.20704607  0.54531036  1
  O  O2163  1  0.88647498  0.20704607  0.79531036  1
  O  O2164  1  0.88647498  0.45704607  0.04531036  1
  O  O2165  1  0.88647498  0.45704607  0.29531036  1
  O  O2166  1  0.88647498  0.45704607  0.54531036  1
  O  O2167  1  0.88647498  0.45704607  0.79531036  1
  O  O2168  1  0.88647498  0.70704607  0.04531036  1
  O  O2169  1  0.88647498  0.70704607  0.29531036  1
  O  O2170  1  0.88647498  0.70704607  0.54531036  1
  O  O2171  1  0.88647498  0.70704607  0.79531036  1
  O  O2172  1  0.88647498  0.95704607  0.04531036  1
  O  O2173  1  0.88647498  0.95704607  0.29531036  1
  O  O2174  1  0.88647498  0.95704607  0.54531036  1
  O  O2175  1  0.88647498  0.95704607  0.79531036  1
  O  O2176  1  0.11352502  0.08204607  0.07968964  1
  O  O2177  1  0.11352502  0.08204607  0.32968964  1
  O  O2178  1  0.11352502  0.08204607  0.57968964  1
  O  O2179  1  0.11352502  0.08204607  0.82968964  1
  O  O2180  1  0.11352502  0.33204607  0.07968964  1
  O  O2181  1  0.11352502  0.33204607  0.32968964  1
  O  O2182  1  0.11352502  0.33204607  0.57968964  1
  O  O2183  1  0.11352502  0.33204607  0.82968964  1
  O  O2184  1  0.11352502  0.58204607  0.07968964  1
  O  O2185  1  0.11352502  0.58204607  0.32968964  1
  O  O2186  1  0.11352502  0.58204607  0.57968964  1
  O  O2187  1  0.11352502  0.58204607  0.82968964  1
  O  O2188  1  0.11352502  0.83204607  0.07968964  1
  O  O2189  1  0.11352502  0.83204607  0.32968964  1
  O  O2190  1  0.11352502  0.83204607  0.57968964  1
  O  O2191  1  0.11352502  0.83204607  0.82968964  1
  O  O2192  1  0.36352502  0.08204607  0.07968964  1
  O  O2193  1  0.36352502  0.08204607  0.32968964  1
  O  O2194  1  0.36352502  0.08204607  0.57968964  1
  O  O2195  1  0.36352502  0.08204607  0.82968964  1
  O  O2196  1  0.36352502  0.33204607  0.07968964  1
  O  O2197  1  0.36352502  0.33204607  0.32968964  1
  O  O2198  1  0.36352502  0.33204607  0.57968964  1
  O  O2199  1  0.36352502  0.33204607  0.82968964  1
  O  O2200  1  0.36352502  0.58204607  0.07968964  1
  O  O2201  1  0.36352502  0.58204607  0.32968964  1
  O  O2202  1  0.36352502  0.58204607  0.57968964  1
  O  O2203  1  0.36352502  0.58204607  0.82968964  1
  O  O2204  1  0.36352502  0.83204607  0.07968964  1
  O  O2205  1  0.36352502  0.83204607  0.32968964  1
  O  O2206  1  0.36352502  0.83204607  0.57968964  1
  O  O2207  1  0.36352502  0.83204607  0.82968964  1
  O  O2208  1  0.61352502  0.08204607  0.07968964  1
  O  O2209  1  0.61352502  0.08204607  0.32968964  1
  O  O2210  1  0.61352502  0.08204607  0.57968964  1
  O  O2211  1  0.61352502  0.08204607  0.82968964  1
  O  O2212  1  0.61352502  0.33204607  0.07968964  1
  O  O2213  1  0.61352502  0.33204607  0.32968964  1
  O  O2214  1  0.61352502  0.33204607  0.57968964  1
  O  O2215  1  0.61352502  0.33204607  0.82968964  1
  O  O2216  1  0.61352502  0.58204607  0.07968964  1
  O  O2217  1  0.61352502  0.58204607  0.32968964  1
  O  O2218  1  0.61352502  0.58204607  0.57968964  1
  O  O2219  1  0.61352502  0.58204607  0.82968964  1
  O  O2220  1  0.61352502  0.83204607  0.07968964  1
  O  O2221  1  0.61352502  0.83204607  0.32968964  1
  O  O2222  1  0.61352502  0.83204607  0.57968964  1
  O  O2223  1  0.61352502  0.83204607  0.82968964  1
  O  O2224  1  0.86352502  0.08204607  0.07968964  1
  O  O2225  1  0.86352502  0.08204607  0.32968964  1
  O  O2226  1  0.86352502  0.08204607  0.57968964  1
  O  O2227  1  0.86352502  0.08204607  0.82968964  1
  O  O2228  1  0.86352502  0.33204607  0.07968964  1
  O  O2229  1  0.86352502  0.33204607  0.32968964  1
  O  O2230  1  0.86352502  0.33204607  0.57968964  1
  O  O2231  1  0.86352502  0.33204607  0.82968964  1
  O  O2232  1  0.86352502  0.58204607  0.07968964  1
  O  O2233  1  0.86352502  0.58204607  0.32968964  1
  O  O2234  1  0.86352502  0.58204607  0.57968964  1
  O  O2235  1  0.86352502  0.58204607  0.82968964  1
  O  O2236  1  0.86352502  0.83204607  0.07968964  1
  O  O2237  1  0.86352502  0.83204607  0.32968964  1
  O  O2238  1  0.86352502  0.83204607  0.57968964  1
  O  O2239  1  0.86352502  0.83204607  0.82968964  1
  O  O2240  1  0.01147498  0.16795393  0.20468964  1
  O  O2241  1  0.01147498  0.16795393  0.45468964  1
  O  O2242  1  0.01147498  0.16795393  0.70468964  1
  O  O2243  1  0.01147498  0.16795393  0.95468964  1
  O  O2244  1  0.01147498  0.41795393  0.20468964  1
  O  O2245  1  0.01147498  0.41795393  0.45468964  1
  O  O2246  1  0.01147498  0.41795393  0.70468964  1
  O  O2247  1  0.01147498  0.41795393  0.95468964  1
  O  O2248  1  0.01147498  0.66795393  0.20468964  1
  O  O2249  1  0.01147498  0.66795393  0.45468964  1
  O  O2250  1  0.01147498  0.66795393  0.70468964  1
  O  O2251  1  0.01147498  0.66795393  0.95468964  1
  O  O2252  1  0.01147498  0.91795393  0.20468964  1
  O  O2253  1  0.01147498  0.91795393  0.45468964  1
  O  O2254  1  0.01147498  0.91795393  0.70468964  1
  O  O2255  1  0.01147498  0.91795393  0.95468964  1
  O  O2256  1  0.26147498  0.16795393  0.20468964  1
  O  O2257  1  0.26147498  0.16795393  0.45468964  1
  O  O2258  1  0.26147498  0.16795393  0.70468964  1
  O  O2259  1  0.26147498  0.16795393  0.95468964  1
  O  O2260  1  0.26147498  0.41795393  0.20468964  1
  O  O2261  1  0.26147498  0.41795393  0.45468964  1
  O  O2262  1  0.26147498  0.41795393  0.70468964  1
  O  O2263  1  0.26147498  0.41795393  0.95468964  1
  O  O2264  1  0.26147498  0.66795393  0.20468964  1
  O  O2265  1  0.26147498  0.66795393  0.45468964  1
  O  O2266  1  0.26147498  0.66795393  0.70468964  1
  O  O2267  1  0.26147498  0.66795393  0.95468964  1
  O  O2268  1  0.26147498  0.91795393  0.20468964  1
  O  O2269  1  0.26147498  0.91795393  0.45468964  1
  O  O2270  1  0.26147498  0.91795393  0.70468964  1
  O  O2271  1  0.26147498  0.91795393  0.95468964  1
  O  O2272  1  0.51147498  0.16795393  0.20468964  1
  O  O2273  1  0.51147498  0.16795393  0.45468964  1
  O  O2274  1  0.51147498  0.16795393  0.70468964  1
  O  O2275  1  0.51147498  0.16795393  0.95468964  1
  O  O2276  1  0.51147498  0.41795393  0.20468964  1
  O  O2277  1  0.51147498  0.41795393  0.45468964  1
  O  O2278  1  0.51147498  0.41795393  0.70468964  1
  O  O2279  1  0.51147498  0.41795393  0.95468964  1
  O  O2280  1  0.51147498  0.66795393  0.20468964  1
  O  O2281  1  0.51147498  0.66795393  0.45468964  1
  O  O2282  1  0.51147498  0.66795393  0.70468964  1
  O  O2283  1  0.51147498  0.66795393  0.95468964  1
  O  O2284  1  0.51147498  0.91795393  0.20468964  1
  O  O2285  1  0.51147498  0.91795393  0.45468964  1
  O  O2286  1  0.51147498  0.91795393  0.70468964  1
  O  O2287  1  0.51147498  0.91795393  0.95468964  1
  O  O2288  1  0.76147498  0.16795393  0.20468964  1
  O  O2289  1  0.76147498  0.16795393  0.45468964  1
  O  O2290  1  0.76147498  0.16795393  0.70468964  1
  O  O2291  1  0.76147498  0.16795393  0.95468964  1
  O  O2292  1  0.76147498  0.41795393  0.20468964  1
  O  O2293  1  0.76147498  0.41795393  0.45468964  1
  O  O2294  1  0.76147498  0.41795393  0.70468964  1
  O  O2295  1  0.76147498  0.41795393  0.95468964  1
  O  O2296  1  0.76147498  0.66795393  0.20468964  1
  O  O2297  1  0.76147498  0.66795393  0.45468964  1
  O  O2298  1  0.76147498  0.66795393  0.70468964  1
  O  O2299  1  0.76147498  0.66795393  0.95468964  1
  O  O2300  1  0.76147498  0.91795393  0.20468964  1
  O  O2301  1  0.76147498  0.91795393  0.45468964  1
  O  O2302  1  0.76147498  0.91795393  0.70468964  1
  O  O2303  1  0.76147498  0.91795393  0.95468964  1
  F  F2304  1  0.23487800  0.02021591  0.01394542  1
  F  F2305  1  0.23487800  0.02021591  0.26394542  1
  F  F2306  1  0.23487800  0.02021591  0.51394542  1
  F  F2307  1  0.23487800  0.02021591  0.76394543  1
  F  F2308  1  0.23487800  0.27021591  0.01394542  1
  F  F2309  1  0.23487800  0.27021591  0.26394542  1
  F  F2310  1  0.23487800  0.27021591  0.51394542  1
  F  F2311  1  0.23487800  0.27021591  0.76394543  1
  F  F2312  1  0.23487800  0.52021591  0.01394542  1
  F  F2313  1  0.23487800  0.52021591  0.26394542  1
  F  F2314  1  0.23487800  0.52021591  0.51394542  1
  F  F2315  1  0.23487800  0.52021591  0.76394543  1
  F  F2316  1  0.23487800  0.77021591  0.01394542  1
  F  F2317  1  0.23487800  0.77021591  0.26394542  1
  F  F2318  1  0.23487800  0.77021591  0.51394542  1
  F  F2319  1  0.23487800  0.77021591  0.76394543  1
  F  F2320  1  0.48487800  0.02021591  0.01394542  1
  F  F2321  1  0.48487800  0.02021591  0.26394542  1
  F  F2322  1  0.48487800  0.02021591  0.51394542  1
  F  F2323  1  0.48487800  0.02021591  0.76394543  1
  F  F2324  1  0.48487800  0.27021591  0.01394542  1
  F  F2325  1  0.48487800  0.27021591  0.26394542  1
  F  F2326  1  0.48487800  0.27021591  0.51394542  1
  F  F2327  1  0.48487800  0.27021591  0.76394543  1
  F  F2328  1  0.48487800  0.52021591  0.01394542  1
  F  F2329  1  0.48487800  0.52021591  0.26394542  1
  F  F2330  1  0.48487800  0.52021591  0.51394542  1
  F  F2331  1  0.48487800  0.52021591  0.76394543  1
  F  F2332  1  0.48487800  0.77021591  0.01394542  1
  F  F2333  1  0.48487800  0.77021591  0.26394542  1
  F  F2334  1  0.48487800  0.77021591  0.51394542  1
  F  F2335  1  0.48487800  0.77021591  0.76394543  1
  F  F2336  1  0.73487800  0.02021591  0.01394542  1
  F  F2337  1  0.73487800  0.02021591  0.26394542  1
  F  F2338  1  0.73487800  0.02021591  0.51394542  1
  F  F2339  1  0.73487800  0.02021591  0.76394543  1
  F  F2340  1  0.73487800  0.27021591  0.01394542  1
  F  F2341  1  0.73487800  0.27021591  0.26394542  1
  F  F2342  1  0.73487800  0.27021591  0.51394542  1
  F  F2343  1  0.73487800  0.27021591  0.76394543  1
  F  F2344  1  0.73487800  0.52021591  0.01394542  1
  F  F2345  1  0.73487800  0.52021591  0.26394542  1
  F  F2346  1  0.73487800  0.52021591  0.51394542  1
  F  F2347  1  0.73487800  0.52021591  0.76394543  1
  F  F2348  1  0.73487800  0.77021591  0.01394542  1
  F  F2349  1  0.73487800  0.77021591  0.26394542  1
  F  F2350  1  0.73487800  0.77021591  0.51394542  1
  F  F2351  1  0.73487800  0.77021591  0.76394543  1
  F  F2352  1  0.98487800  0.02021591  0.01394542  1
  F  F2353  1  0.98487800  0.02021591  0.26394542  1
  F  F2354  1  0.98487800  0.02021591  0.51394542  1
  F  F2355  1  0.98487800  0.02021591  0.76394543  1
  F  F2356  1  0.98487800  0.27021591  0.01394542  1
  F  F2357  1  0.98487800  0.27021591  0.26394542  1
  F  F2358  1  0.98487800  0.27021591  0.51394542  1
  F  F2359  1  0.98487800  0.27021591  0.76394543  1
  F  F2360  1  0.98487800  0.52021591  0.01394542  1
  F  F2361  1  0.98487800  0.52021591  0.26394542  1
  F  F2362  1  0.98487800  0.52021591  0.51394542  1
  F  F2363  1  0.98487800  0.52021591  0.76394543  1
  F  F2364  1  0.98487800  0.77021591  0.01394542  1
  F  F2365  1  0.98487800  0.77021591  0.26394542  1
  F  F2366  1  0.98487800  0.77021591  0.51394542  1
  F  F2367  1  0.98487800  0.77021591  0.76394543  1
  F  F2368  1  0.14012200  0.22978409  0.13894542  1
  F  F2369  1  0.14012200  0.22978409  0.38894542  1
  F  F2370  1  0.14012200  0.22978409  0.63894542  1
  F  F2371  1  0.14012200  0.22978409  0.88894542  1
  F  F2372  1  0.14012200  0.47978409  0.13894542  1
  F  F2373  1  0.14012200  0.47978409  0.38894542  1
  F  F2374  1  0.14012200  0.47978409  0.63894542  1
  F  F2375  1  0.14012200  0.47978409  0.88894542  1
  F  F2376  1  0.14012200  0.72978409  0.13894542  1
  F  F2377  1  0.14012200  0.72978409  0.38894542  1
  F  F2378  1  0.14012200  0.72978409  0.63894542  1
  F  F2379  1  0.14012200  0.72978409  0.88894542  1
  F  F2380  1  0.14012200  0.97978409  0.13894542  1
  F  F2381  1  0.14012200  0.97978409  0.38894542  1
  F  F2382  1  0.14012200  0.97978409  0.63894542  1
  F  F2383  1  0.14012200  0.97978409  0.88894542  1
  F  F2384  1  0.39012200  0.22978409  0.13894542  1
  F  F2385  1  0.39012200  0.22978409  0.38894542  1
  F  F2386  1  0.39012200  0.22978409  0.63894542  1
  F  F2387  1  0.39012200  0.22978409  0.88894542  1
  F  F2388  1  0.39012200  0.47978409  0.13894542  1
  F  F2389  1  0.39012200  0.47978409  0.38894542  1
  F  F2390  1  0.39012200  0.47978409  0.63894542  1
  F  F2391  1  0.39012200  0.47978409  0.88894542  1
  F  F2392  1  0.39012200  0.72978409  0.13894542  1
  F  F2393  1  0.39012200  0.72978409  0.38894542  1
  F  F2394  1  0.39012200  0.72978409  0.63894542  1
  F  F2395  1  0.39012200  0.72978409  0.88894542  1
  F  F2396  1  0.39012200  0.97978409  0.13894542  1
  F  F2397  1  0.39012200  0.97978409  0.38894542  1
  F  F2398  1  0.39012200  0.97978409  0.63894542  1
  F  F2399  1  0.39012200  0.97978409  0.88894542  1
  F  F2400  1  0.64012200  0.22978409  0.13894542  1
  F  F2401  1  0.64012200  0.22978409  0.38894542  1
  F  F2402  1  0.64012200  0.22978409  0.63894542  1
  F  F2403  1  0.64012200  0.22978409  0.88894542  1
  F  F2404  1  0.64012200  0.47978409  0.13894542  1
  F  F2405  1  0.64012200  0.47978409  0.38894542  1
  F  F2406  1  0.64012200  0.47978409  0.63894542  1
  F  F2407  1  0.64012200  0.47978409  0.88894542  1
  F  F2408  1  0.64012200  0.72978409  0.13894542  1
  F  F2409  1  0.64012200  0.72978409  0.38894542  1
  F  F2410  1  0.64012200  0.72978409  0.63894542  1
  F  F2411  1  0.64012200  0.72978409  0.88894542  1
  F  F2412  1  0.64012200  0.97978409  0.13894542  1
  F  F2413  1  0.64012200  0.97978409  0.38894542  1
  F  F2414  1  0.64012200  0.97978409  0.63894542  1
  F  F2415  1  0.64012200  0.97978409  0.88894542  1
  F  F2416  1  0.89012200  0.22978409  0.13894542  1
  F  F2417  1  0.89012200  0.22978409  0.38894542  1
  F  F2418  1  0.89012200  0.22978409  0.63894542  1
  F  F2419  1  0.89012200  0.22978409  0.88894542  1
  F  F2420  1  0.89012200  0.47978409  0.13894542  1
  F  F2421  1  0.89012200  0.47978409  0.38894542  1
  F  F2422  1  0.89012200  0.47978409  0.63894542  1
  F  F2423  1  0.89012200  0.47978409  0.88894542  1
  F  F2424  1  0.89012200  0.72978409  0.13894542  1
  F  F2425  1  0.89012200  0.72978409  0.38894542  1
  F  F2426  1  0.89012200  0.72978409  0.63894542  1
  F  F2427  1  0.89012200  0.72978409  0.88894542  1
  F  F2428  1  0.89012200  0.97978409  0.13894542  1
  F  F2429  1  0.89012200  0.97978409  0.38894542  1
  F  F2430  1  0.89012200  0.97978409  0.63894542  1
  F  F2431  1  0.89012200  0.97978409  0.88894542  1
  F  F2432  1  0.10987800  0.10478409  0.23605457  1
  F  F2433  1  0.10987800  0.10478409  0.48605457  1
  F  F2434  1  0.10987800  0.10478409  0.73605457  1
  F  F2435  1  0.10987800  0.10478409  0.98605458  1
  F  F2436  1  0.10987800  0.35478409  0.23605457  1
  F  F2437  1  0.10987800  0.35478409  0.48605457  1
  F  F2438  1  0.10987800  0.35478409  0.73605457  1
  F  F2439  1  0.10987800  0.35478409  0.98605458  1
  F  F2440  1  0.10987800  0.60478409  0.23605457  1
  F  F2441  1  0.10987800  0.60478409  0.48605457  1
  F  F2442  1  0.10987800  0.60478409  0.73605457  1
  F  F2443  1  0.10987800  0.60478409  0.98605458  1
  F  F2444  1  0.10987800  0.85478409  0.23605457  1
  F  F2445  1  0.10987800  0.85478409  0.48605457  1
  F  F2446  1  0.10987800  0.85478409  0.73605457  1
  F  F2447  1  0.10987800  0.85478409  0.98605458  1
  F  F2448  1  0.35987800  0.10478409  0.23605457  1
  F  F2449  1  0.35987800  0.10478409  0.48605457  1
  F  F2450  1  0.35987800  0.10478409  0.73605457  1
  F  F2451  1  0.35987800  0.10478409  0.98605458  1
  F  F2452  1  0.35987800  0.35478409  0.23605457  1
  F  F2453  1  0.35987800  0.35478409  0.48605457  1
  F  F2454  1  0.35987800  0.35478409  0.73605457  1
  F  F2455  1  0.35987800  0.35478409  0.98605458  1
  F  F2456  1  0.35987800  0.60478409  0.23605457  1
  F  F2457  1  0.35987800  0.60478409  0.48605457  1
  F  F2458  1  0.35987800  0.60478409  0.73605457  1
  F  F2459  1  0.35987800  0.60478409  0.98605458  1
  F  F2460  1  0.35987800  0.85478409  0.23605457  1
  F  F2461  1  0.35987800  0.85478409  0.48605457  1
  F  F2462  1  0.35987800  0.85478409  0.73605457  1
  F  F2463  1  0.35987800  0.85478409  0.98605458  1
  F  F2464  1  0.60987800  0.10478409  0.23605457  1
  F  F2465  1  0.60987800  0.10478409  0.48605457  1
  F  F2466  1  0.60987800  0.10478409  0.73605457  1
  F  F2467  1  0.60987800  0.10478409  0.98605458  1
  F  F2468  1  0.60987800  0.35478409  0.23605457  1
  F  F2469  1  0.60987800  0.35478409  0.48605457  1
  F  F2470  1  0.60987800  0.35478409  0.73605457  1
  F  F2471  1  0.60987800  0.35478409  0.98605458  1
  F  F2472  1  0.60987800  0.60478409  0.23605457  1
  F  F2473  1  0.60987800  0.60478409  0.48605457  1
  F  F2474  1  0.60987800  0.60478409  0.73605457  1
  F  F2475  1  0.60987800  0.60478409  0.98605458  1
  F  F2476  1  0.60987800  0.85478409  0.23605457  1
  F  F2477  1  0.60987800  0.85478409  0.48605457  1
  F  F2478  1  0.60987800  0.85478409  0.73605457  1
  F  F2479  1  0.60987800  0.85478409  0.98605458  1
  F  F2480  1  0.85987800  0.10478409  0.23605457  1
  F  F2481  1  0.85987800  0.10478409  0.48605457  1
  F  F2482  1  0.85987800  0.10478409  0.73605457  1
  F  F2483  1  0.85987800  0.10478409  0.98605458  1
  F  F2484  1  0.85987800  0.35478409  0.23605457  1
  F  F2485  1  0.85987800  0.35478409  0.48605457  1
  F  F2486  1  0.85987800  0.35478409  0.73605457  1
  F  F2487  1  0.85987800  0.35478409  0.98605458  1
  F  F2488  1  0.85987800  0.60478409  0.23605457  1
  F  F2489  1  0.85987800  0.60478409  0.48605457  1
  F  F2490  1  0.85987800  0.60478409  0.73605457  1
  F  F2491  1  0.85987800  0.60478409  0.98605458  1
  F  F2492  1  0.85987800  0.85478409  0.23605457  1
  F  F2493  1  0.85987800  0.85478409  0.48605457  1
  F  F2494  1  0.85987800  0.85478409  0.73605457  1
  F  F2495  1  0.85987800  0.85478409  0.98605458  1
  F  F2496  1  0.01512200  0.14521591  0.11105457  1
  F  F2497  1  0.01512200  0.14521591  0.36105457  1
  F  F2498  1  0.01512200  0.14521591  0.61105457  1
  F  F2499  1  0.01512200  0.14521591  0.86105457  1
  F  F2500  1  0.01512200  0.39521591  0.11105457  1
  F  F2501  1  0.01512200  0.39521591  0.36105457  1
  F  F2502  1  0.01512200  0.39521591  0.61105457  1
  F  F2503  1  0.01512200  0.39521591  0.86105457  1
  F  F2504  1  0.01512200  0.64521591  0.11105457  1
  F  F2505  1  0.01512200  0.64521591  0.36105457  1
  F  F2506  1  0.01512200  0.64521591  0.61105457  1
  F  F2507  1  0.01512200  0.64521591  0.86105457  1
  F  F2508  1  0.01512200  0.89521591  0.11105457  1
  F  F2509  1  0.01512200  0.89521591  0.36105457  1
  F  F2510  1  0.01512200  0.89521591  0.61105457  1
  F  F2511  1  0.01512200  0.89521591  0.86105457  1
  F  F2512  1  0.26512200  0.14521591  0.11105457  1
  F  F2513  1  0.26512200  0.14521591  0.36105457  1
  F  F2514  1  0.26512200  0.14521591  0.61105457  1
  F  F2515  1  0.26512200  0.14521591  0.86105457  1
  F  F2516  1  0.26512200  0.39521591  0.11105457  1
  F  F2517  1  0.26512200  0.39521591  0.36105457  1
  F  F2518  1  0.26512200  0.39521591  0.61105457  1
  F  F2519  1  0.26512200  0.39521591  0.86105457  1
  F  F2520  1  0.26512200  0.64521591  0.11105457  1
  F  F2521  1  0.26512200  0.64521591  0.36105457  1
  F  F2522  1  0.26512200  0.64521591  0.61105457  1
  F  F2523  1  0.26512200  0.64521591  0.86105457  1
  F  F2524  1  0.26512200  0.89521591  0.11105457  1
  F  F2525  1  0.26512200  0.89521591  0.36105457  1
  F  F2526  1  0.26512200  0.89521591  0.61105457  1
  F  F2527  1  0.26512200  0.89521591  0.86105457  1
  F  F2528  1  0.51512200  0.14521591  0.11105457  1
  F  F2529  1  0.51512200  0.14521591  0.36105457  1
  F  F2530  1  0.51512200  0.14521591  0.61105457  1
  F  F2531  1  0.51512200  0.14521591  0.86105457  1
  F  F2532  1  0.51512200  0.39521591  0.11105457  1
  F  F2533  1  0.51512200  0.39521591  0.36105457  1
  F  F2534  1  0.51512200  0.39521591  0.61105457  1
  F  F2535  1  0.51512200  0.39521591  0.86105457  1
  F  F2536  1  0.51512200  0.64521591  0.11105457  1
  F  F2537  1  0.51512200  0.64521591  0.36105457  1
  F  F2538  1  0.51512200  0.64521591  0.61105457  1
  F  F2539  1  0.51512200  0.64521591  0.86105457  1
  F  F2540  1  0.51512200  0.89521591  0.11105457  1
  F  F2541  1  0.51512200  0.89521591  0.36105457  1
  F  F2542  1  0.51512200  0.89521591  0.61105457  1
  F  F2543  1  0.51512200  0.89521591  0.86105457  1
  F  F2544  1  0.76512200  0.14521591  0.11105457  1
  F  F2545  1  0.76512200  0.14521591  0.36105457  1
  F  F2546  1  0.76512200  0.14521591  0.61105457  1
  F  F2547  1  0.76512200  0.14521591  0.86105457  1
  F  F2548  1  0.76512200  0.39521591  0.11105457  1
  F  F2549  1  0.76512200  0.39521591  0.36105457  1
  F  F2550  1  0.76512200  0.39521591  0.61105457  1
  F  F2551  1  0.76512200  0.39521591  0.86105457  1
  F  F2552  1  0.76512200  0.64521591  0.11105457  1
  F  F2553  1  0.76512200  0.64521591  0.36105457  1
  F  F2554  1  0.76512200  0.64521591  0.61105457  1
  F  F2555  1  0.76512200  0.64521591  0.86105457  1
  F  F2556  1  0.76512200  0.89521591  0.11105457  1
  F  F2557  1  0.76512200  0.89521591  0.36105457  1
  F  F2558  1  0.76512200  0.89521591  0.61105457  1
  F  F2559  1  0.76512200  0.89521591  0.86105457  1
  F  F2560  1  0.09559511  0.01229998  0.24848613  1
  F  F2561  1  0.09559511  0.01229998  0.49848613  1
  F  F2562  1  0.09559511  0.01229998  0.74848613  1
  F  F2563  1  0.09559511  0.01229998  0.99848613  1
  F  F2564  1  0.09559511  0.26229998  0.24848613  1
  F  F2565  1  0.09559511  0.26229998  0.49848613  1
  F  F2566  1  0.09559511  0.26229998  0.74848613  1
  F  F2567  1  0.09559511  0.26229998  0.99848613  1
  F  F2568  1  0.09559511  0.51229998  0.24848613  1
  F  F2569  1  0.09559511  0.51229998  0.49848613  1
  F  F2570  1  0.09559511  0.51229998  0.74848613  1
  F  F2571  1  0.09559511  0.51229998  0.99848613  1
  F  F2572  1  0.09559511  0.76229998  0.24848613  1
  F  F2573  1  0.09559511  0.76229998  0.49848613  1
  F  F2574  1  0.09559511  0.76229998  0.74848613  1
  F  F2575  1  0.09559511  0.76229998  0.99848613  1
  F  F2576  1  0.34559511  0.01229998  0.24848613  1
  F  F2577  1  0.34559511  0.01229998  0.49848613  1
  F  F2578  1  0.34559511  0.01229998  0.74848613  1
  F  F2579  1  0.34559511  0.01229998  0.99848613  1
  F  F2580  1  0.34559511  0.26229998  0.24848613  1
  F  F2581  1  0.34559511  0.26229998  0.49848613  1
  F  F2582  1  0.34559511  0.26229998  0.74848613  1
  F  F2583  1  0.34559511  0.26229998  0.99848613  1
  F  F2584  1  0.34559511  0.51229998  0.24848613  1
  F  F2585  1  0.34559511  0.51229998  0.49848613  1
  F  F2586  1  0.34559511  0.51229998  0.74848613  1
  F  F2587  1  0.34559511  0.51229998  0.99848613  1
  F  F2588  1  0.34559511  0.76229998  0.24848613  1
  F  F2589  1  0.34559511  0.76229998  0.49848613  1
  F  F2590  1  0.34559511  0.76229998  0.74848613  1
  F  F2591  1  0.34559511  0.76229998  0.99848613  1
  F  F2592  1  0.59559511  0.01229998  0.24848613  1
  F  F2593  1  0.59559511  0.01229998  0.49848613  1
  F  F2594  1  0.59559511  0.01229998  0.74848613  1
  F  F2595  1  0.59559511  0.01229998  0.99848613  1
  F  F2596  1  0.59559511  0.26229998  0.24848613  1
  F  F2597  1  0.59559511  0.26229998  0.49848613  1
  F  F2598  1  0.59559511  0.26229998  0.74848613  1
  F  F2599  1  0.59559511  0.26229998  0.99848613  1
  F  F2600  1  0.59559511  0.51229998  0.24848613  1
  F  F2601  1  0.59559511  0.51229998  0.49848613  1
  F  F2602  1  0.59559511  0.51229998  0.74848613  1
  F  F2603  1  0.59559511  0.51229998  0.99848613  1
  F  F2604  1  0.59559511  0.76229998  0.24848613  1
  F  F2605  1  0.59559511  0.76229998  0.49848613  1
  F  F2606  1  0.59559511  0.76229998  0.74848613  1
  F  F2607  1  0.59559511  0.76229998  0.99848613  1
  F  F2608  1  0.84559511  0.01229998  0.24848613  1
  F  F2609  1  0.84559511  0.01229998  0.49848613  1
  F  F2610  1  0.84559511  0.01229998  0.74848613  1
  F  F2611  1  0.84559511  0.01229998  0.99848613  1
  F  F2612  1  0.84559511  0.26229998  0.24848613  1
  F  F2613  1  0.84559511  0.26229998  0.49848613  1
  F  F2614  1  0.84559511  0.26229998  0.74848613  1
  F  F2615  1  0.84559511  0.26229998  0.99848613  1
  F  F2616  1  0.84559511  0.51229998  0.24848613  1
  F  F2617  1  0.84559511  0.51229998  0.49848613  1
  F  F2618  1  0.84559511  0.51229998  0.74848613  1
  F  F2619  1  0.84559511  0.51229998  0.99848613  1
  F  F2620  1  0.84559511  0.76229998  0.24848613  1
  F  F2621  1  0.84559511  0.76229998  0.49848613  1
  F  F2622  1  0.84559511  0.76229998  0.74848613  1
  F  F2623  1  0.84559511  0.76229998  0.99848613  1
  F  F2624  1  0.02940489  0.23770002  0.12348613  1
  F  F2625  1  0.02940489  0.23770002  0.37348613  1
  F  F2626  1  0.02940489  0.23770002  0.62348613  1
  F  F2627  1  0.02940489  0.23770002  0.87348613  1
  F  F2628  1  0.02940489  0.48770002  0.12348613  1
  F  F2629  1  0.02940489  0.48770002  0.37348613  1
  F  F2630  1  0.02940489  0.48770002  0.62348613  1
  F  F2631  1  0.02940489  0.48770002  0.87348613  1
  F  F2632  1  0.02940489  0.73770002  0.12348613  1
  F  F2633  1  0.02940489  0.73770002  0.37348613  1
  F  F2634  1  0.02940489  0.73770002  0.62348613  1
  F  F2635  1  0.02940489  0.73770002  0.87348613  1
  F  F2636  1  0.02940489  0.98770002  0.12348613  1
  F  F2637  1  0.02940489  0.98770002  0.37348613  1
  F  F2638  1  0.02940489  0.98770002  0.62348613  1
  F  F2639  1  0.02940489  0.98770002  0.87348613  1
  F  F2640  1  0.27940489  0.23770002  0.12348613  1
  F  F2641  1  0.27940489  0.23770002  0.37348613  1
  F  F2642  1  0.27940489  0.23770002  0.62348613  1
  F  F2643  1  0.27940489  0.23770002  0.87348613  1
  F  F2644  1  0.27940489  0.48770002  0.12348613  1
  F  F2645  1  0.27940489  0.48770002  0.37348613  1
  F  F2646  1  0.27940489  0.48770002  0.62348613  1
  F  F2647  1  0.27940489  0.48770002  0.87348613  1
  F  F2648  1  0.27940489  0.73770002  0.12348613  1
  F  F2649  1  0.27940489  0.73770002  0.37348613  1
  F  F2650  1  0.27940489  0.73770002  0.62348613  1
  F  F2651  1  0.27940489  0.73770002  0.87348613  1
  F  F2652  1  0.27940489  0.98770002  0.12348613  1
  F  F2653  1  0.27940489  0.98770002  0.37348613  1
  F  F2654  1  0.27940489  0.98770002  0.62348613  1
  F  F2655  1  0.27940489  0.98770002  0.87348613  1
  F  F2656  1  0.52940489  0.23770002  0.12348613  1
  F  F2657  1  0.52940489  0.23770002  0.37348613  1
  F  F2658  1  0.52940489  0.23770002  0.62348613  1
  F  F2659  1  0.52940489  0.23770002  0.87348613  1
  F  F2660  1  0.52940489  0.48770002  0.12348613  1
  F  F2661  1  0.52940489  0.48770002  0.37348613  1
  F  F2662  1  0.52940489  0.48770002  0.62348613  1
  F  F2663  1  0.52940489  0.48770002  0.87348613  1
  F  F2664  1  0.52940489  0.73770002  0.12348613  1
  F  F2665  1  0.52940489  0.73770002  0.37348613  1
  F  F2666  1  0.52940489  0.73770002  0.62348613  1
  F  F2667  1  0.52940489  0.73770002  0.87348613  1
  F  F2668  1  0.52940489  0.98770002  0.12348613  1
  F  F2669  1  0.52940489  0.98770002  0.37348613  1
  F  F2670  1  0.52940489  0.98770002  0.62348613  1
  F  F2671  1  0.52940489  0.98770002  0.87348613  1
  F  F2672  1  0.77940489  0.23770002  0.12348613  1
  F  F2673  1  0.77940489  0.23770002  0.37348613  1
  F  F2674  1  0.77940489  0.23770002  0.62348613  1
  F  F2675  1  0.77940489  0.23770002  0.87348613  1
  F  F2676  1  0.77940489  0.48770002  0.12348613  1
  F  F2677  1  0.77940489  0.48770002  0.37348613  1
  F  F2678  1  0.77940489  0.48770002  0.62348613  1
  F  F2679  1  0.77940489  0.48770002  0.87348613  1
  F  F2680  1  0.77940489  0.73770002  0.12348613  1
  F  F2681  1  0.77940489  0.73770002  0.37348613  1
  F  F2682  1  0.77940489  0.73770002  0.62348613  1
  F  F2683  1  0.77940489  0.73770002  0.87348613  1
  F  F2684  1  0.77940489  0.98770002  0.12348613  1
  F  F2685  1  0.77940489  0.98770002  0.37348613  1
  F  F2686  1  0.77940489  0.98770002  0.62348613  1
  F  F2687  1  0.77940489  0.98770002  0.87348613  1
  F  F2688  1  0.22059511  0.11270002  0.00151387  1
  F  F2689  1  0.22059511  0.11270002  0.25151387  1
  F  F2690  1  0.22059511  0.11270002  0.50151387  1
  F  F2691  1  0.22059511  0.11270002  0.75151387  1
  F  F2692  1  0.22059511  0.36270002  0.00151387  1
  F  F2693  1  0.22059511  0.36270002  0.25151387  1
  F  F2694  1  0.22059511  0.36270002  0.50151387  1
  F  F2695  1  0.22059511  0.36270002  0.75151387  1
  F  F2696  1  0.22059511  0.61270002  0.00151387  1
  F  F2697  1  0.22059511  0.61270002  0.25151387  1
  F  F2698  1  0.22059511  0.61270002  0.50151387  1
  F  F2699  1  0.22059511  0.61270002  0.75151387  1
  F  F2700  1  0.22059511  0.86270002  0.00151387  1
  F  F2701  1  0.22059511  0.86270002  0.25151387  1
  F  F2702  1  0.22059511  0.86270002  0.50151387  1
  F  F2703  1  0.22059511  0.86270002  0.75151387  1
  F  F2704  1  0.47059511  0.11270002  0.00151387  1
  F  F2705  1  0.47059511  0.11270002  0.25151387  1
  F  F2706  1  0.47059511  0.11270002  0.50151387  1
  F  F2707  1  0.47059511  0.11270002  0.75151387  1
  F  F2708  1  0.47059511  0.36270002  0.00151387  1
  F  F2709  1  0.47059511  0.36270002  0.25151387  1
  F  F2710  1  0.47059511  0.36270002  0.50151387  1
  F  F2711  1  0.47059511  0.36270002  0.75151387  1
  F  F2712  1  0.47059511  0.61270002  0.00151387  1
  F  F2713  1  0.47059511  0.61270002  0.25151387  1
  F  F2714  1  0.47059511  0.61270002  0.50151387  1
  F  F2715  1  0.47059511  0.61270002  0.75151387  1
  F  F2716  1  0.47059511  0.86270002  0.00151387  1
  F  F2717  1  0.47059511  0.86270002  0.25151387  1
  F  F2718  1  0.47059511  0.86270002  0.50151387  1
  F  F2719  1  0.47059511  0.86270002  0.75151387  1
  F  F2720  1  0.72059511  0.11270002  0.00151387  1
  F  F2721  1  0.72059511  0.11270002  0.25151387  1
  F  F2722  1  0.72059511  0.11270002  0.50151387  1
  F  F2723  1  0.72059511  0.11270002  0.75151387  1
  F  F2724  1  0.72059511  0.36270002  0.00151387  1
  F  F2725  1  0.72059511  0.36270002  0.25151387  1
  F  F2726  1  0.72059511  0.36270002  0.50151387  1
  F  F2727  1  0.72059511  0.36270002  0.75151387  1
  F  F2728  1  0.72059511  0.61270002  0.00151387  1
  F  F2729  1  0.72059511  0.61270002  0.25151387  1
  F  F2730  1  0.72059511  0.61270002  0.50151387  1
  F  F2731  1  0.72059511  0.61270002  0.75151387  1
  F  F2732  1  0.72059511  0.86270002  0.00151387  1
  F  F2733  1  0.72059511  0.86270002  0.25151387  1
  F  F2734  1  0.72059511  0.86270002  0.50151387  1
  F  F2735  1  0.72059511  0.86270002  0.75151387  1
  F  F2736  1  0.97059511  0.11270002  0.00151387  1
  F  F2737  1  0.97059511  0.11270002  0.25151387  1
  F  F2738  1  0.97059511  0.11270002  0.50151387  1
  F  F2739  1  0.97059511  0.11270002  0.75151387  1
  F  F2740  1  0.97059511  0.36270002  0.00151387  1
  F  F2741  1  0.97059511  0.36270002  0.25151387  1
  F  F2742  1  0.97059511  0.36270002  0.50151387  1
  F  F2743  1  0.97059511  0.36270002  0.75151387  1
  F  F2744  1  0.97059511  0.61270002  0.00151387  1
  F  F2745  1  0.97059511  0.61270002  0.25151387  1
  F  F2746  1  0.97059511  0.61270002  0.50151387  1
  F  F2747  1  0.97059511  0.61270002  0.75151387  1
  F  F2748  1  0.97059511  0.86270002  0.00151387  1
  F  F2749  1  0.97059511  0.86270002  0.25151387  1
  F  F2750  1  0.97059511  0.86270002  0.50151387  1
  F  F2751  1  0.97059511  0.86270002  0.75151387  1
  F  F2752  1  0.15440489  0.13729998  0.12651387  1
  F  F2753  1  0.15440489  0.13729998  0.37651387  1
  F  F2754  1  0.15440489  0.13729998  0.62651387  1
  F  F2755  1  0.15440489  0.13729998  0.87651387  1
  F  F2756  1  0.15440489  0.38729998  0.12651387  1
  F  F2757  1  0.15440489  0.38729998  0.37651387  1
  F  F2758  1  0.15440489  0.38729998  0.62651387  1
  F  F2759  1  0.15440489  0.38729998  0.87651387  1
  F  F2760  1  0.15440489  0.63729998  0.12651387  1
  F  F2761  1  0.15440489  0.63729998  0.37651387  1
  F  F2762  1  0.15440489  0.63729998  0.62651387  1
  F  F2763  1  0.15440489  0.63729998  0.87651387  1
  F  F2764  1  0.15440489  0.88729998  0.12651387  1
  F  F2765  1  0.15440489  0.88729998  0.37651387  1
  F  F2766  1  0.15440489  0.88729998  0.62651387  1
  F  F2767  1  0.15440489  0.88729998  0.87651387  1
  F  F2768  1  0.40440489  0.13729998  0.12651387  1
  F  F2769  1  0.40440489  0.13729998  0.37651387  1
  F  F2770  1  0.40440489  0.13729998  0.62651387  1
  F  F2771  1  0.40440489  0.13729998  0.87651387  1
  F  F2772  1  0.40440489  0.38729998  0.12651387  1
  F  F2773  1  0.40440489  0.38729998  0.37651387  1
  F  F2774  1  0.40440489  0.38729998  0.62651387  1
  F  F2775  1  0.40440489  0.38729998  0.87651387  1
  F  F2776  1  0.40440489  0.63729998  0.12651387  1
  F  F2777  1  0.40440489  0.63729998  0.37651387  1
  F  F2778  1  0.40440489  0.63729998  0.62651387  1
  F  F2779  1  0.40440489  0.63729998  0.87651387  1
  F  F2780  1  0.40440489  0.88729998  0.12651387  1
  F  F2781  1  0.40440489  0.88729998  0.37651387  1
  F  F2782  1  0.40440489  0.88729998  0.62651387  1
  F  F2783  1  0.40440489  0.88729998  0.87651387  1
  F  F2784  1  0.65440489  0.13729998  0.12651387  1
  F  F2785  1  0.65440489  0.13729998  0.37651387  1
  F  F2786  1  0.65440489  0.13729998  0.62651387  1
  F  F2787  1  0.65440489  0.13729998  0.87651387  1
  F  F2788  1  0.65440489  0.38729998  0.12651387  1
  F  F2789  1  0.65440489  0.38729998  0.37651387  1
  F  F2790  1  0.65440489  0.38729998  0.62651387  1
  F  F2791  1  0.65440489  0.38729998  0.87651387  1
  F  F2792  1  0.65440489  0.63729998  0.12651387  1
  F  F2793  1  0.65440489  0.63729998  0.37651387  1
  F  F2794  1  0.65440489  0.63729998  0.62651387  1
  F  F2795  1  0.65440489  0.63729998  0.87651387  1
  F  F2796  1  0.65440489  0.88729998  0.12651387  1
  F  F2797  1  0.65440489  0.88729998  0.37651387  1
  F  F2798  1  0.65440489  0.88729998  0.62651387  1
  F  F2799  1  0.65440489  0.88729998  0.87651387  1
  F  F2800  1  0.90440489  0.13729998  0.12651387  1
  F  F2801  1  0.90440489  0.13729998  0.37651387  1
  F  F2802  1  0.90440489  0.13729998  0.62651387  1
  F  F2803  1  0.90440489  0.13729998  0.87651387  1
  F  F2804  1  0.90440489  0.38729998  0.12651387  1
  F  F2805  1  0.90440489  0.38729998  0.37651387  1
  F  F2806  1  0.90440489  0.38729998  0.62651387  1
  F  F2807  1  0.90440489  0.38729998  0.87651387  1
  F  F2808  1  0.90440489  0.63729998  0.12651387  1
  F  F2809  1  0.90440489  0.63729998  0.37651387  1
  F  F2810  1  0.90440489  0.63729998  0.62651387  1
  F  F2811  1  0.90440489  0.63729998  0.87651387  1
  F  F2812  1  0.90440489  0.88729998  0.12651387  1
  F  F2813  1  0.90440489  0.88729998  0.37651387  1
  F  F2814  1  0.90440489  0.88729998  0.62651387  1
  F  F2815  1  0.90440489  0.88729998  0.87651387  1
  F  F2816  1  0.15468291  0.19776696  0.21379140  1
  F  F2817  1  0.15468291  0.19776696  0.46379140  1
  F  F2818  1  0.15468291  0.19776696  0.71379140  1
  F  F2819  1  0.15468291  0.19776696  0.96379140  1
  F  F2820  1  0.15468291  0.44776696  0.21379140  1
  F  F2821  1  0.15468291  0.44776696  0.46379140  1
  F  F2822  1  0.15468291  0.44776696  0.71379140  1
  F  F2823  1  0.15468291  0.44776696  0.96379140  1
  F  F2824  1  0.15468291  0.69776696  0.21379140  1
  F  F2825  1  0.15468291  0.69776696  0.46379140  1
  F  F2826  1  0.15468291  0.69776696  0.71379140  1
  F  F2827  1  0.15468291  0.69776696  0.96379140  1
  F  F2828  1  0.15468291  0.94776696  0.21379140  1
  F  F2829  1  0.15468291  0.94776696  0.46379140  1
  F  F2830  1  0.15468291  0.94776696  0.71379140  1
  F  F2831  1  0.15468291  0.94776696  0.96379140  1
  F  F2832  1  0.40468291  0.19776696  0.21379140  1
  F  F2833  1  0.40468291  0.19776696  0.46379140  1
  F  F2834  1  0.40468291  0.19776696  0.71379140  1
  F  F2835  1  0.40468291  0.19776696  0.96379140  1
  F  F2836  1  0.40468291  0.44776696  0.21379140  1
  F  F2837  1  0.40468291  0.44776696  0.46379140  1
  F  F2838  1  0.40468291  0.44776696  0.71379140  1
  F  F2839  1  0.40468291  0.44776696  0.96379140  1
  F  F2840  1  0.40468291  0.69776696  0.21379140  1
  F  F2841  1  0.40468291  0.69776696  0.46379140  1
  F  F2842  1  0.40468291  0.69776696  0.71379140  1
  F  F2843  1  0.40468291  0.69776696  0.96379140  1
  F  F2844  1  0.40468291  0.94776696  0.21379140  1
  F  F2845  1  0.40468291  0.94776696  0.46379140  1
  F  F2846  1  0.40468291  0.94776696  0.71379140  1
  F  F2847  1  0.40468291  0.94776696  0.96379140  1
  F  F2848  1  0.65468291  0.19776696  0.21379140  1
  F  F2849  1  0.65468291  0.19776696  0.46379140  1
  F  F2850  1  0.65468291  0.19776696  0.71379140  1
  F  F2851  1  0.65468291  0.19776696  0.96379140  1
  F  F2852  1  0.65468291  0.44776696  0.21379140  1
  F  F2853  1  0.65468291  0.44776696  0.46379140  1
  F  F2854  1  0.65468291  0.44776696  0.71379140  1
  F  F2855  1  0.65468291  0.44776696  0.96379140  1
  F  F2856  1  0.65468291  0.69776696  0.21379140  1
  F  F2857  1  0.65468291  0.69776696  0.46379140  1
  F  F2858  1  0.65468291  0.69776696  0.71379140  1
  F  F2859  1  0.65468291  0.69776696  0.96379140  1
  F  F2860  1  0.65468291  0.94776696  0.21379140  1
  F  F2861  1  0.65468291  0.94776696  0.46379140  1
  F  F2862  1  0.65468291  0.94776696  0.71379140  1
  F  F2863  1  0.65468291  0.94776696  0.96379140  1
  F  F2864  1  0.90468291  0.19776696  0.21379140  1
  F  F2865  1  0.90468291  0.19776696  0.46379140  1
  F  F2866  1  0.90468291  0.19776696  0.71379140  1
  F  F2867  1  0.90468291  0.19776696  0.96379140  1
  F  F2868  1  0.90468291  0.44776696  0.21379140  1
  F  F2869  1  0.90468291  0.44776696  0.46379140  1
  F  F2870  1  0.90468291  0.44776696  0.71379140  1
  F  F2871  1  0.90468291  0.44776696  0.96379140  1
  F  F2872  1  0.90468291  0.69776696  0.21379140  1
  F  F2873  1  0.90468291  0.69776696  0.46379140  1
  F  F2874  1  0.90468291  0.69776696  0.71379140  1
  F  F2875  1  0.90468291  0.69776696  0.96379140  1
  F  F2876  1  0.90468291  0.94776696  0.21379140  1
  F  F2877  1  0.90468291  0.94776696  0.46379140  1
  F  F2878  1  0.90468291  0.94776696  0.71379140  1
  F  F2879  1  0.90468291  0.94776696  0.96379140  1
  F  F2880  1  0.22031709  0.05223304  0.08879140  1
  F  F2881  1  0.22031709  0.05223304  0.33879140  1
  F  F2882  1  0.22031709  0.05223304  0.58879140  1
  F  F2883  1  0.22031709  0.05223304  0.83879140  1
  F  F2884  1  0.22031709  0.30223304  0.08879140  1
  F  F2885  1  0.22031709  0.30223304  0.33879140  1
  F  F2886  1  0.22031709  0.30223304  0.58879140  1
  F  F2887  1  0.22031709  0.30223304  0.83879140  1
  F  F2888  1  0.22031709  0.55223304  0.08879140  1
  F  F2889  1  0.22031709  0.55223304  0.33879140  1
  F  F2890  1  0.22031709  0.55223304  0.58879140  1
  F  F2891  1  0.22031709  0.55223304  0.83879140  1
  F  F2892  1  0.22031709  0.80223304  0.08879140  1
  F  F2893  1  0.22031709  0.80223304  0.33879140  1
  F  F2894  1  0.22031709  0.80223304  0.58879140  1
  F  F2895  1  0.22031709  0.80223304  0.83879140  1
  F  F2896  1  0.47031709  0.05223304  0.08879140  1
  F  F2897  1  0.47031709  0.05223304  0.33879140  1
  F  F2898  1  0.47031709  0.05223304  0.58879140  1
  F  F2899  1  0.47031709  0.05223304  0.83879140  1
  F  F2900  1  0.47031709  0.30223304  0.08879140  1
  F  F2901  1  0.47031709  0.30223304  0.33879140  1
  F  F2902  1  0.47031709  0.30223304  0.58879140  1
  F  F2903  1  0.47031709  0.30223304  0.83879140  1
  F  F2904  1  0.47031709  0.55223304  0.08879140  1
  F  F2905  1  0.47031709  0.55223304  0.33879140  1
  F  F2906  1  0.47031709  0.55223304  0.58879140  1
  F  F2907  1  0.47031709  0.55223304  0.83879140  1
  F  F2908  1  0.47031709  0.80223304  0.08879140  1
  F  F2909  1  0.47031709  0.80223304  0.33879140  1
  F  F2910  1  0.47031709  0.80223304  0.58879140  1
  F  F2911  1  0.47031709  0.80223304  0.83879140  1
  F  F2912  1  0.72031709  0.05223304  0.08879140  1
  F  F2913  1  0.72031709  0.05223304  0.33879140  1
  F  F2914  1  0.72031709  0.05223304  0.58879140  1
  F  F2915  1  0.72031709  0.05223304  0.83879140  1
  F  F2916  1  0.72031709  0.30223304  0.08879140  1
  F  F2917  1  0.72031709  0.30223304  0.33879140  1
  F  F2918  1  0.72031709  0.30223304  0.58879140  1
  F  F2919  1  0.72031709  0.30223304  0.83879140  1
  F  F2920  1  0.72031709  0.55223304  0.08879140  1
  F  F2921  1  0.72031709  0.55223304  0.33879140  1
  F  F2922  1  0.72031709  0.55223304  0.58879140  1
  F  F2923  1  0.72031709  0.55223304  0.83879140  1
  F  F2924  1  0.72031709  0.80223304  0.08879140  1
  F  F2925  1  0.72031709  0.80223304  0.33879140  1
  F  F2926  1  0.72031709  0.80223304  0.58879140  1
  F  F2927  1  0.72031709  0.80223304  0.83879140  1
  F  F2928  1  0.97031709  0.05223304  0.08879140  1
  F  F2929  1  0.97031709  0.05223304  0.33879140  1
  F  F2930  1  0.97031709  0.05223304  0.58879140  1
  F  F2931  1  0.97031709  0.05223304  0.83879140  1
  F  F2932  1  0.97031709  0.30223304  0.08879140  1
  F  F2933  1  0.97031709  0.30223304  0.33879140  1
  F  F2934  1  0.97031709  0.30223304  0.58879140  1
  F  F2935  1  0.97031709  0.30223304  0.83879140  1
  F  F2936  1  0.97031709  0.55223304  0.08879140  1
  F  F2937  1  0.97031709  0.55223304  0.33879140  1
  F  F2938  1  0.97031709  0.55223304  0.58879140  1
  F  F2939  1  0.97031709  0.55223304  0.83879140  1
  F  F2940  1  0.97031709  0.80223304  0.08879140  1
  F  F2941  1  0.97031709  0.80223304  0.33879140  1
  F  F2942  1  0.97031709  0.80223304  0.58879140  1
  F  F2943  1  0.97031709  0.80223304  0.83879140  1
  F  F2944  1  0.02968291  0.17723304  0.03620860  1
  F  F2945  1  0.02968291  0.17723304  0.28620860  1
  F  F2946  1  0.02968291  0.17723304  0.53620860  1
  F  F2947  1  0.02968291  0.17723304  0.78620860  1
  F  F2948  1  0.02968291  0.42723304  0.03620860  1
  F  F2949  1  0.02968291  0.42723304  0.28620860  1
  F  F2950  1  0.02968291  0.42723304  0.53620860  1
  F  F2951  1  0.02968291  0.42723304  0.78620860  1
  F  F2952  1  0.02968291  0.67723304  0.03620860  1
  F  F2953  1  0.02968291  0.67723304  0.28620860  1
  F  F2954  1  0.02968291  0.67723304  0.53620860  1
  F  F2955  1  0.02968291  0.67723304  0.78620860  1
  F  F2956  1  0.02968291  0.92723304  0.03620860  1
  F  F2957  1  0.02968291  0.92723304  0.28620860  1
  F  F2958  1  0.02968291  0.92723304  0.53620860  1
  F  F2959  1  0.02968291  0.92723304  0.78620860  1
  F  F2960  1  0.27968291  0.17723304  0.03620860  1
  F  F2961  1  0.27968291  0.17723304  0.28620860  1
  F  F2962  1  0.27968291  0.17723304  0.53620860  1
  F  F2963  1  0.27968291  0.17723304  0.78620860  1
  F  F2964  1  0.27968291  0.42723304  0.03620860  1
  F  F2965  1  0.27968291  0.42723304  0.28620860  1
  F  F2966  1  0.27968291  0.42723304  0.53620860  1
  F  F2967  1  0.27968291  0.42723304  0.78620860  1
  F  F2968  1  0.27968291  0.67723304  0.03620860  1
  F  F2969  1  0.27968291  0.67723304  0.28620860  1
  F  F2970  1  0.27968291  0.67723304  0.53620860  1
  F  F2971  1  0.27968291  0.67723304  0.78620860  1
  F  F2972  1  0.27968291  0.92723304  0.03620860  1
  F  F2973  1  0.27968291  0.92723304  0.28620860  1
  F  F2974  1  0.27968291  0.92723304  0.53620860  1
  F  F2975  1  0.27968291  0.92723304  0.78620860  1
  F  F2976  1  0.52968291  0.17723304  0.03620860  1
  F  F2977  1  0.52968291  0.17723304  0.28620860  1
  F  F2978  1  0.52968291  0.17723304  0.53620860  1
  F  F2979  1  0.52968291  0.17723304  0.78620860  1
  F  F2980  1  0.52968291  0.42723304  0.03620860  1
  F  F2981  1  0.52968291  0.42723304  0.28620860  1
  F  F2982  1  0.52968291  0.42723304  0.53620860  1
  F  F2983  1  0.52968291  0.42723304  0.78620860  1
  F  F2984  1  0.52968291  0.67723304  0.03620860  1
  F  F2985  1  0.52968291  0.67723304  0.28620860  1
  F  F2986  1  0.52968291  0.67723304  0.53620860  1
  F  F2987  1  0.52968291  0.67723304  0.78620860  1
  F  F2988  1  0.52968291  0.92723304  0.03620860  1
  F  F2989  1  0.52968291  0.92723304  0.28620860  1
  F  F2990  1  0.52968291  0.92723304  0.53620860  1
  F  F2991  1  0.52968291  0.92723304  0.78620860  1
  F  F2992  1  0.77968291  0.17723304  0.03620860  1
  F  F2993  1  0.77968291  0.17723304  0.28620860  1
  F  F2994  1  0.77968291  0.17723304  0.53620860  1
  F  F2995  1  0.77968291  0.17723304  0.78620860  1
  F  F2996  1  0.77968291  0.42723304  0.03620860  1
  F  F2997  1  0.77968291  0.42723304  0.28620860  1
  F  F2998  1  0.77968291  0.42723304  0.53620860  1
  F  F2999  1  0.77968291  0.42723304  0.78620860  1
  F  F3000  1  0.77968291  0.67723304  0.03620860  1
  F  F3001  1  0.77968291  0.67723304  0.28620860  1
  F  F3002  1  0.77968291  0.67723304  0.53620860  1
  F  F3003  1  0.77968291  0.67723304  0.78620860  1
  F  F3004  1  0.77968291  0.92723304  0.03620860  1
  F  F3005  1  0.77968291  0.92723304  0.28620860  1
  F  F3006  1  0.77968291  0.92723304  0.53620860  1
  F  F3007  1  0.77968291  0.92723304  0.78620860  1
  F  F3008  1  0.09531709  0.07276696  0.16120860  1
  F  F3009  1  0.09531709  0.07276696  0.41120860  1
  F  F3010  1  0.09531709  0.07276696  0.66120860  1
  F  F3011  1  0.09531709  0.07276696  0.91120860  1
  F  F3012  1  0.09531709  0.32276696  0.16120860  1
  F  F3013  1  0.09531709  0.32276696  0.41120860  1
  F  F3014  1  0.09531709  0.32276696  0.66120860  1
  F  F3015  1  0.09531709  0.32276696  0.91120860  1
  F  F3016  1  0.09531709  0.57276696  0.16120860  1
  F  F3017  1  0.09531709  0.57276696  0.41120860  1
  F  F3018  1  0.09531709  0.57276696  0.66120860  1
  F  F3019  1  0.09531709  0.57276696  0.91120860  1
  F  F3020  1  0.09531709  0.82276696  0.16120860  1
  F  F3021  1  0.09531709  0.82276696  0.41120860  1
  F  F3022  1  0.09531709  0.82276696  0.66120860  1
  F  F3023  1  0.09531709  0.82276696  0.91120860  1
  F  F3024  1  0.34531709  0.07276696  0.16120860  1
  F  F3025  1  0.34531709  0.07276696  0.41120860  1
  F  F3026  1  0.34531709  0.07276696  0.66120860  1
  F  F3027  1  0.34531709  0.07276696  0.91120860  1
  F  F3028  1  0.34531709  0.32276696  0.16120860  1
  F  F3029  1  0.34531709  0.32276696  0.41120860  1
  F  F3030  1  0.34531709  0.32276696  0.66120860  1
  F  F3031  1  0.34531709  0.32276696  0.91120860  1
  F  F3032  1  0.34531709  0.57276696  0.16120860  1
  F  F3033  1  0.34531709  0.57276696  0.41120860  1
  F  F3034  1  0.34531709  0.57276696  0.66120860  1
  F  F3035  1  0.34531709  0.57276696  0.91120860  1
  F  F3036  1  0.34531709  0.82276696  0.16120860  1
  F  F3037  1  0.34531709  0.82276696  0.41120860  1
  F  F3038  1  0.34531709  0.82276696  0.66120860  1
  F  F3039  1  0.34531709  0.82276696  0.91120860  1
  F  F3040  1  0.59531709  0.07276696  0.16120860  1
  F  F3041  1  0.59531709  0.07276696  0.41120860  1
  F  F3042  1  0.59531709  0.07276696  0.66120860  1
  F  F3043  1  0.59531709  0.07276696  0.91120860  1
  F  F3044  1  0.59531709  0.32276696  0.16120860  1
  F  F3045  1  0.59531709  0.32276696  0.41120860  1
  F  F3046  1  0.59531709  0.32276696  0.66120860  1
  F  F3047  1  0.59531709  0.32276696  0.91120860  1
  F  F3048  1  0.59531709  0.57276696  0.16120860  1
  F  F3049  1  0.59531709  0.57276696  0.41120860  1
  F  F3050  1  0.59531709  0.57276696  0.66120860  1
  F  F3051  1  0.59531709  0.57276696  0.91120860  1
  F  F3052  1  0.59531709  0.82276696  0.16120860  1
  F  F3053  1  0.59531709  0.82276696  0.41120860  1
  F  F3054  1  0.59531709  0.82276696  0.66120860  1
  F  F3055  1  0.59531709  0.82276696  0.91120860  1
  F  F3056  1  0.84531709  0.07276696  0.16120860  1
  F  F3057  1  0.84531709  0.07276696  0.41120860  1
  F  F3058  1  0.84531709  0.07276696  0.66120860  1
  F  F3059  1  0.84531709  0.07276696  0.91120860  1
  F  F3060  1  0.84531709  0.32276696  0.16120860  1
  F  F3061  1  0.84531709  0.32276696  0.41120860  1
  F  F3062  1  0.84531709  0.32276696  0.66120860  1
  F  F3063  1  0.84531709  0.32276696  0.91120860  1
  F  F3064  1  0.84531709  0.57276696  0.16120860  1
  F  F3065  1  0.84531709  0.57276696  0.41120860  1
  F  F3066  1  0.84531709  0.57276696  0.66120860  1
  F  F3067  1  0.84531709  0.57276696  0.91120860  1
  F  F3068  1  0.84531709  0.82276696  0.16120860  1
  F  F3069  1  0.84531709  0.82276696  0.41120860  1
  F  F3070  1  0.84531709  0.82276696  0.66120860  1
  F  F3071  1  0.84531709  0.82276696  0.91120860  1
