# generated using pymatgen
data_Li2Fe3SbO8
_symmetry_space_group_name_H-M   'P 1'
_cell_length_a   30.03183882
_cell_length_b   30.03183882
_cell_length_c   48.89449000
_cell_angle_alpha   90.00000000
_cell_angle_beta   90.00000000
_cell_angle_gamma   119.99999740
_symmetry_Int_Tables_number   1
_chemical_formula_structural   Li2Fe3SbO8
_chemical_formula_sum   'Li500 Fe750 Sb250 O2000'
_cell_volume   38190.41805776
_cell_formula_units_Z   250
loop_
 _symmetry_equiv_pos_site_id
 _symmetry_equiv_pos_as_xyz
  1  'x, y, z'
loop_
 _atom_site_type_symbol
 _atom_site_label
 _atom_site_symmetry_multiplicity
 _atom_site_fract_x
 _atom_site_fract_y
 _atom_site_fract_z
 _atom_site_occupancy
  Li  Li0  1  0.06666660  0.13333340  0.18056880  1
  Li  Li1  1  0.06666660  0.13333340  0.38056880  1
  Li  Li2  1  0.06666660  0.13333340  0.58056880  1
  Li  Li3  1  0.06666660  0.13333340  0.78056880  1
  Li  Li4  1  0.06666660  0.13333340  0.98056880  1
  Li  Li5  1  0.06666660  0.33333340  0.18056880  1
  Li  Li6  1  0.06666660  0.33333340  0.38056880  1
  Li  Li7  1  0.06666660  0.33333340  0.58056880  1
  Li  Li8  1  0.06666660  0.33333340  0.78056880  1
  Li  Li9  1  0.06666660  0.33333340  0.98056880  1
  Li  Li10  1  0.06666660  0.53333340  0.18056880  1
  Li  Li11  1  0.06666660  0.53333340  0.38056880  1
  Li  Li12  1  0.06666660  0.53333340  0.58056880  1
  Li  Li13  1  0.06666660  0.53333340  0.78056880  1
  Li  Li14  1  0.06666660  0.53333340  0.98056880  1
  Li  Li15  1  0.06666660  0.73333340  0.18056880  1
  Li  Li16  1  0.06666660  0.73333340  0.38056880  1
  Li  Li17  1  0.06666660  0.73333340  0.58056880  1
  Li  Li18  1  0.06666660  0.73333340  0.78056880  1
  Li  Li19  1  0.06666660  0.73333340  0.98056880  1
  Li  Li20  1  0.06666660  0.93333340  0.18056880  1
  Li  Li21  1  0.06666660  0.93333340  0.38056880  1
  Li  Li22  1  0.06666660  0.93333340  0.58056880  1
  Li  Li23  1  0.06666660  0.93333340  0.78056880  1
  Li  Li24  1  0.06666660  0.93333340  0.98056880  1
  Li  Li25  1  0.26666660  0.13333340  0.18056880  1
  Li  Li26  1  0.26666660  0.13333340  0.38056880  1
  Li  Li27  1  0.26666660  0.13333340  0.58056880  1
  Li  Li28  1  0.26666660  0.13333340  0.78056880  1
  Li  Li29  1  0.26666660  0.13333340  0.98056880  1
  Li  Li30  1  0.26666660  0.33333340  0.18056880  1
  Li  Li31  1  0.26666660  0.33333340  0.38056880  1
  Li  Li32  1  0.26666660  0.33333340  0.58056880  1
  Li  Li33  1  0.26666660  0.33333340  0.78056880  1
  Li  Li34  1  0.26666660  0.33333340  0.98056880  1
  Li  Li35  1  0.26666660  0.53333340  0.18056880  1
  Li  Li36  1  0.26666660  0.53333340  0.38056880  1
  Li  Li37  1  0.26666660  0.53333340  0.58056880  1
  Li  Li38  1  0.26666660  0.53333340  0.78056880  1
  Li  Li39  1  0.26666660  0.53333340  0.98056880  1
  Li  Li40  1  0.26666660  0.73333340  0.18056880  1
  Li  Li41  1  0.26666660  0.73333340  0.38056880  1
  Li  Li42  1  0.26666660  0.73333340  0.58056880  1
  Li  Li43  1  0.26666660  0.73333340  0.78056880  1
  Li  Li44  1  0.26666660  0.73333340  0.98056880  1
  Li  Li45  1  0.26666660  0.93333340  0.18056880  1
  Li  Li46  1  0.26666660  0.93333340  0.38056880  1
  Li  Li47  1  0.26666660  0.93333340  0.58056880  1
  Li  Li48  1  0.26666660  0.93333340  0.78056880  1
  Li  Li49  1  0.26666660  0.93333340  0.98056880  1
  Li  Li50  1  0.46666660  0.13333340  0.18056880  1
  Li  Li51  1  0.46666660  0.13333340  0.38056880  1
  Li  Li52  1  0.46666660  0.13333340  0.58056880  1
  Li  Li53  1  0.46666660  0.13333340  0.78056880  1
  Li  Li54  1  0.46666660  0.13333340  0.98056880  1
  Li  Li55  1  0.46666660  0.33333340  0.18056880  1
  Li  Li56  1  0.46666660  0.33333340  0.38056880  1
  Li  Li57  1  0.46666660  0.33333340  0.58056880  1
  Li  Li58  1  0.46666660  0.33333340  0.78056880  1
  Li  Li59  1  0.46666660  0.33333340  0.98056880  1
  Li  Li60  1  0.46666660  0.53333340  0.18056880  1
  Li  Li61  1  0.46666660  0.53333340  0.38056880  1
  Li  Li62  1  0.46666660  0.53333340  0.58056880  1
  Li  Li63  1  0.46666660  0.53333340  0.78056880  1
  Li  Li64  1  0.46666660  0.53333340  0.98056880  1
  Li  Li65  1  0.46666660  0.73333340  0.18056880  1
  Li  Li66  1  0.46666660  0.73333340  0.38056880  1
  Li  Li67  1  0.46666660  0.73333340  0.58056880  1
  Li  Li68  1  0.46666660  0.73333340  0.78056880  1
  Li  Li69  1  0.46666660  0.73333340  0.98056880  1
  Li  Li70  1  0.46666660  0.93333340  0.18056880  1
  Li  Li71  1  0.46666660  0.93333340  0.38056880  1
  Li  Li72  1  0.46666660  0.93333340  0.58056880  1
  Li  Li73  1  0.46666660  0.93333340  0.78056880  1
  Li  Li74  1  0.46666660  0.93333340  0.98056880  1
  Li  Li75  1  0.66666660  0.13333340  0.18056880  1
  Li  Li76  1  0.66666660  0.13333340  0.38056880  1
  Li  Li77  1  0.66666660  0.13333340  0.58056880  1
  Li  Li78  1  0.66666660  0.13333340  0.78056880  1
  Li  Li79  1  0.66666660  0.13333340  0.98056880  1
  Li  Li80  1  0.66666660  0.33333340  0.18056880  1
  Li  Li81  1  0.66666660  0.33333340  0.38056880  1
  Li  Li82  1  0.66666660  0.33333340  0.58056880  1
  Li  Li83  1  0.66666660  0.33333340  0.78056880  1
  Li  Li84  1  0.66666660  0.33333340  0.98056880  1
  Li  Li85  1  0.66666660  0.53333340  0.18056880  1
  Li  Li86  1  0.66666660  0.53333340  0.38056880  1
  Li  Li87  1  0.66666660  0.53333340  0.58056880  1
  Li  Li88  1  0.66666660  0.53333340  0.78056880  1
  Li  Li89  1  0.66666660  0.53333340  0.98056880  1
  Li  Li90  1  0.66666660  0.73333340  0.18056880  1
  Li  Li91  1  0.66666660  0.73333340  0.38056880  1
  Li  Li92  1  0.66666660  0.73333340  0.58056880  1
  Li  Li93  1  0.66666660  0.73333340  0.78056880  1
  Li  Li94  1  0.66666660  0.73333340  0.98056880  1
  Li  Li95  1  0.66666660  0.93333340  0.18056880  1
  Li  Li96  1  0.66666660  0.93333340  0.38056880  1
  Li  Li97  1  0.66666660  0.93333340  0.58056880  1
  Li  Li98  1  0.66666660  0.93333340  0.78056880  1
  Li  Li99  1  0.66666660  0.93333340  0.98056880  1
  Li  Li100  1  0.86666660  0.13333340  0.18056880  1
  Li  Li101  1  0.86666660  0.13333340  0.38056880  1
  Li  Li102  1  0.86666660  0.13333340  0.58056880  1
  Li  Li103  1  0.86666660  0.13333340  0.78056880  1
  Li  Li104  1  0.86666660  0.13333340  0.98056880  1
  Li  Li105  1  0.86666660  0.33333340  0.18056880  1
  Li  Li106  1  0.86666660  0.33333340  0.38056880  1
  Li  Li107  1  0.86666660  0.33333340  0.58056880  1
  Li  Li108  1  0.86666660  0.33333340  0.78056880  1
  Li  Li109  1  0.86666660  0.33333340  0.98056880  1
  Li  Li110  1  0.86666660  0.53333340  0.18056880  1
  Li  Li111  1  0.86666660  0.53333340  0.38056880  1
  Li  Li112  1  0.86666660  0.53333340  0.58056880  1
  Li  Li113  1  0.86666660  0.53333340  0.78056880  1
  Li  Li114  1  0.86666660  0.53333340  0.98056880  1
  Li  Li115  1  0.86666660  0.73333340  0.18056880  1
  Li  Li116  1  0.86666660  0.73333340  0.38056880  1
  Li  Li117  1  0.86666660  0.73333340  0.58056880  1
  Li  Li118  1  0.86666660  0.73333340  0.78056880  1
  Li  Li119  1  0.86666660  0.73333340  0.98056880  1
  Li  Li120  1  0.86666660  0.93333340  0.18056880  1
  Li  Li121  1  0.86666660  0.93333340  0.38056880  1
  Li  Li122  1  0.86666660  0.93333340  0.58056880  1
  Li  Li123  1  0.86666660  0.93333340  0.78056880  1
  Li  Li124  1  0.86666660  0.93333340  0.98056880  1
  Li  Li125  1  0.00000000  0.00000000  0.19772040  1
  Li  Li126  1  0.00000000  0.00000000  0.39772040  1
  Li  Li127  1  0.00000000  0.00000000  0.59772040  1
  Li  Li128  1  0.00000000  0.00000000  0.79772040  1
  Li  Li129  1  0.00000000  0.00000000  0.99772040  1
  Li  Li130  1  0.00000000  0.20000000  0.19772040  1
  Li  Li131  1  0.00000000  0.20000000  0.39772040  1
  Li  Li132  1  0.00000000  0.20000000  0.59772040  1
  Li  Li133  1  0.00000000  0.20000000  0.79772040  1
  Li  Li134  1  0.00000000  0.20000000  0.99772040  1
  Li  Li135  1  0.00000000  0.40000000  0.19772040  1
  Li  Li136  1  0.00000000  0.40000000  0.39772040  1
  Li  Li137  1  0.00000000  0.40000000  0.59772040  1
  Li  Li138  1  0.00000000  0.40000000  0.79772040  1
  Li  Li139  1  0.00000000  0.40000000  0.99772040  1
  Li  Li140  1  0.00000000  0.60000000  0.19772040  1
  Li  Li141  1  0.00000000  0.60000000  0.39772040  1
  Li  Li142  1  0.00000000  0.60000000  0.59772040  1
  Li  Li143  1  0.00000000  0.60000000  0.79772040  1
  Li  Li144  1  0.00000000  0.60000000  0.99772040  1
  Li  Li145  1  0.00000000  0.80000000  0.19772040  1
  Li  Li146  1  0.00000000  0.80000000  0.39772040  1
  Li  Li147  1  0.00000000  0.80000000  0.59772040  1
  Li  Li148  1  0.00000000  0.80000000  0.79772040  1
  Li  Li149  1  0.00000000  0.80000000  0.99772040  1
  Li  Li150  1  0.20000000  0.00000000  0.19772040  1
  Li  Li151  1  0.20000000  0.00000000  0.39772040  1
  Li  Li152  1  0.20000000  0.00000000  0.59772040  1
  Li  Li153  1  0.20000000  0.00000000  0.79772040  1
  Li  Li154  1  0.20000000  0.00000000  0.99772040  1
  Li  Li155  1  0.20000000  0.20000000  0.19772040  1
  Li  Li156  1  0.20000000  0.20000000  0.39772040  1
  Li  Li157  1  0.20000000  0.20000000  0.59772040  1
  Li  Li158  1  0.20000000  0.20000000  0.79772040  1
  Li  Li159  1  0.20000000  0.20000000  0.99772040  1
  Li  Li160  1  0.20000000  0.40000000  0.19772040  1
  Li  Li161  1  0.20000000  0.40000000  0.39772040  1
  Li  Li162  1  0.20000000  0.40000000  0.59772040  1
  Li  Li163  1  0.20000000  0.40000000  0.79772040  1
  Li  Li164  1  0.20000000  0.40000000  0.99772040  1
  Li  Li165  1  0.20000000  0.60000000  0.19772040  1
  Li  Li166  1  0.20000000  0.60000000  0.39772040  1
  Li  Li167  1  0.20000000  0.60000000  0.59772040  1
  Li  Li168  1  0.20000000  0.60000000  0.79772040  1
  Li  Li169  1  0.20000000  0.60000000  0.99772040  1
  Li  Li170  1  0.20000000  0.80000000  0.19772040  1
  Li  Li171  1  0.20000000  0.80000000  0.39772040  1
  Li  Li172  1  0.20000000  0.80000000  0.59772040  1
  Li  Li173  1  0.20000000  0.80000000  0.79772040  1
  Li  Li174  1  0.20000000  0.80000000  0.99772040  1
  Li  Li175  1  0.40000000  0.00000000  0.19772040  1
  Li  Li176  1  0.40000000  0.00000000  0.39772040  1
  Li  Li177  1  0.40000000  0.00000000  0.59772040  1
  Li  Li178  1  0.40000000  0.00000000  0.79772040  1
  Li  Li179  1  0.40000000  0.00000000  0.99772040  1
  Li  Li180  1  0.40000000  0.20000000  0.19772040  1
  Li  Li181  1  0.40000000  0.20000000  0.39772040  1
  Li  Li182  1  0.40000000  0.20000000  0.59772040  1
  Li  Li183  1  0.40000000  0.20000000  0.79772040  1
  Li  Li184  1  0.40000000  0.20000000  0.99772040  1
  Li  Li185  1  0.40000000  0.40000000  0.19772040  1
  Li  Li186  1  0.40000000  0.40000000  0.39772040  1
  Li  Li187  1  0.40000000  0.40000000  0.59772040  1
  Li  Li188  1  0.40000000  0.40000000  0.79772040  1
  Li  Li189  1  0.40000000  0.40000000  0.99772040  1
  Li  Li190  1  0.40000000  0.60000000  0.19772040  1
  Li  Li191  1  0.40000000  0.60000000  0.39772040  1
  Li  Li192  1  0.40000000  0.60000000  0.59772040  1
  Li  Li193  1  0.40000000  0.60000000  0.79772040  1
  Li  Li194  1  0.40000000  0.60000000  0.99772040  1
  Li  Li195  1  0.40000000  0.80000000  0.19772040  1
  Li  Li196  1  0.40000000  0.80000000  0.39772040  1
  Li  Li197  1  0.40000000  0.80000000  0.59772040  1
  Li  Li198  1  0.40000000  0.80000000  0.79772040  1
  Li  Li199  1  0.40000000  0.80000000  0.99772040  1
  Li  Li200  1  0.60000000  0.00000000  0.19772040  1
  Li  Li201  1  0.60000000  0.00000000  0.39772040  1
  Li  Li202  1  0.60000000  0.00000000  0.59772040  1
  Li  Li203  1  0.60000000  0.00000000  0.79772040  1
  Li  Li204  1  0.60000000  0.00000000  0.99772040  1
  Li  Li205  1  0.60000000  0.20000000  0.19772040  1
  Li  Li206  1  0.60000000  0.20000000  0.39772040  1
  Li  Li207  1  0.60000000  0.20000000  0.59772040  1
  Li  Li208  1  0.60000000  0.20000000  0.79772040  1
  Li  Li209  1  0.60000000  0.20000000  0.99772040  1
  Li  Li210  1  0.60000000  0.40000000  0.19772040  1
  Li  Li211  1  0.60000000  0.40000000  0.39772040  1
  Li  Li212  1  0.60000000  0.40000000  0.59772040  1
  Li  Li213  1  0.60000000  0.40000000  0.79772040  1
  Li  Li214  1  0.60000000  0.40000000  0.99772040  1
  Li  Li215  1  0.60000000  0.60000000  0.19772040  1
  Li  Li216  1  0.60000000  0.60000000  0.39772040  1
  Li  Li217  1  0.60000000  0.60000000  0.59772040  1
  Li  Li218  1  0.60000000  0.60000000  0.79772040  1
  Li  Li219  1  0.60000000  0.60000000  0.99772040  1
  Li  Li220  1  0.60000000  0.80000000  0.19772040  1
  Li  Li221  1  0.60000000  0.80000000  0.39772040  1
  Li  Li222  1  0.60000000  0.80000000  0.59772040  1
  Li  Li223  1  0.60000000  0.80000000  0.79772040  1
  Li  Li224  1  0.60000000  0.80000000  0.99772040  1
  Li  Li225  1  0.80000000  0.00000000  0.19772040  1
  Li  Li226  1  0.80000000  0.00000000  0.39772040  1
  Li  Li227  1  0.80000000  0.00000000  0.59772040  1
  Li  Li228  1  0.80000000  0.00000000  0.79772040  1
  Li  Li229  1  0.80000000  0.00000000  0.99772040  1
  Li  Li230  1  0.80000000  0.20000000  0.19772040  1
  Li  Li231  1  0.80000000  0.20000000  0.39772040  1
  Li  Li232  1  0.80000000  0.20000000  0.59772040  1
  Li  Li233  1  0.80000000  0.20000000  0.79772040  1
  Li  Li234  1  0.80000000  0.20000000  0.99772040  1
  Li  Li235  1  0.80000000  0.40000000  0.19772040  1
  Li  Li236  1  0.80000000  0.40000000  0.39772040  1
  Li  Li237  1  0.80000000  0.40000000  0.59772040  1
  Li  Li238  1  0.80000000  0.40000000  0.79772040  1
  Li  Li239  1  0.80000000  0.40000000  0.99772040  1
  Li  Li240  1  0.80000000  0.60000000  0.19772040  1
  Li  Li241  1  0.80000000  0.60000000  0.39772040  1
  Li  Li242  1  0.80000000  0.60000000  0.59772040  1
  Li  Li243  1  0.80000000  0.60000000  0.79772040  1
  Li  Li244  1  0.80000000  0.60000000  0.99772040  1
  Li  Li245  1  0.80000000  0.80000000  0.19772040  1
  Li  Li246  1  0.80000000  0.80000000  0.39772040  1
  Li  Li247  1  0.80000000  0.80000000  0.59772040  1
  Li  Li248  1  0.80000000  0.80000000  0.79772040  1
  Li  Li249  1  0.80000000  0.80000000  0.99772040  1
  Li  Li250  1  0.00000000  0.00000000  0.09772040  1
  Li  Li251  1  0.00000000  0.00000000  0.29772040  1
  Li  Li252  1  0.00000000  0.00000000  0.49772040  1
  Li  Li253  1  0.00000000  0.00000000  0.69772040  1
  Li  Li254  1  0.00000000  0.00000000  0.89772040  1
  Li  Li255  1  0.00000000  0.20000000  0.09772040  1
  Li  Li256  1  0.00000000  0.20000000  0.29772040  1
  Li  Li257  1  0.00000000  0.20000000  0.49772040  1
  Li  Li258  1  0.00000000  0.20000000  0.69772040  1
  Li  Li259  1  0.00000000  0.20000000  0.89772040  1
  Li  Li260  1  0.00000000  0.40000000  0.09772040  1
  Li  Li261  1  0.00000000  0.40000000  0.29772040  1
  Li  Li262  1  0.00000000  0.40000000  0.49772040  1
  Li  Li263  1  0.00000000  0.40000000  0.69772040  1
  Li  Li264  1  0.00000000  0.40000000  0.89772040  1
  Li  Li265  1  0.00000000  0.60000000  0.09772040  1
  Li  Li266  1  0.00000000  0.60000000  0.29772040  1
  Li  Li267  1  0.00000000  0.60000000  0.49772040  1
  Li  Li268  1  0.00000000  0.60000000  0.69772040  1
  Li  Li269  1  0.00000000  0.60000000  0.89772040  1
  Li  Li270  1  0.00000000  0.80000000  0.09772040  1
  Li  Li271  1  0.00000000  0.80000000  0.29772040  1
  Li  Li272  1  0.00000000  0.80000000  0.49772040  1
  Li  Li273  1  0.00000000  0.80000000  0.69772040  1
  Li  Li274  1  0.00000000  0.80000000  0.89772040  1
  Li  Li275  1  0.20000000  0.00000000  0.09772040  1
  Li  Li276  1  0.20000000  0.00000000  0.29772040  1
  Li  Li277  1  0.20000000  0.00000000  0.49772040  1
  Li  Li278  1  0.20000000  0.00000000  0.69772040  1
  Li  Li279  1  0.20000000  0.00000000  0.89772040  1
  Li  Li280  1  0.20000000  0.20000000  0.09772040  1
  Li  Li281  1  0.20000000  0.20000000  0.29772040  1
  Li  Li282  1  0.20000000  0.20000000  0.49772040  1
  Li  Li283  1  0.20000000  0.20000000  0.69772040  1
  Li  Li284  1  0.20000000  0.20000000  0.89772040  1
  Li  Li285  1  0.20000000  0.40000000  0.09772040  1
  Li  Li286  1  0.20000000  0.40000000  0.29772040  1
  Li  Li287  1  0.20000000  0.40000000  0.49772040  1
  Li  Li288  1  0.20000000  0.40000000  0.69772040  1
  Li  Li289  1  0.20000000  0.40000000  0.89772040  1
  Li  Li290  1  0.20000000  0.60000000  0.09772040  1
  Li  Li291  1  0.20000000  0.60000000  0.29772040  1
  Li  Li292  1  0.20000000  0.60000000  0.49772040  1
  Li  Li293  1  0.20000000  0.60000000  0.69772040  1
  Li  Li294  1  0.20000000  0.60000000  0.89772040  1
  Li  Li295  1  0.20000000  0.80000000  0.09772040  1
  Li  Li296  1  0.20000000  0.80000000  0.29772040  1
  Li  Li297  1  0.20000000  0.80000000  0.49772040  1
  Li  Li298  1  0.20000000  0.80000000  0.69772040  1
  Li  Li299  1  0.20000000  0.80000000  0.89772040  1
  Li  Li300  1  0.40000000  0.00000000  0.09772040  1
  Li  Li301  1  0.40000000  0.00000000  0.29772040  1
  Li  Li302  1  0.40000000  0.00000000  0.49772040  1
  Li  Li303  1  0.40000000  0.00000000  0.69772040  1
  Li  Li304  1  0.40000000  0.00000000  0.89772040  1
  Li  Li305  1  0.40000000  0.20000000  0.09772040  1
  Li  Li306  1  0.40000000  0.20000000  0.29772040  1
  Li  Li307  1  0.40000000  0.20000000  0.49772040  1
  Li  Li308  1  0.40000000  0.20000000  0.69772040  1
  Li  Li309  1  0.40000000  0.20000000  0.89772040  1
  Li  Li310  1  0.40000000  0.40000000  0.09772040  1
  Li  Li311  1  0.40000000  0.40000000  0.29772040  1
  Li  Li312  1  0.40000000  0.40000000  0.49772040  1
  Li  Li313  1  0.40000000  0.40000000  0.69772040  1
  Li  Li314  1  0.40000000  0.40000000  0.89772040  1
  Li  Li315  1  0.40000000  0.60000000  0.09772040  1
  Li  Li316  1  0.40000000  0.60000000  0.29772040  1
  Li  Li317  1  0.40000000  0.60000000  0.49772040  1
  Li  Li318  1  0.40000000  0.60000000  0.69772040  1
  Li  Li319  1  0.40000000  0.60000000  0.89772040  1
  Li  Li320  1  0.40000000  0.80000000  0.09772040  1
  Li  Li321  1  0.40000000  0.80000000  0.29772040  1
  Li  Li322  1  0.40000000  0.80000000  0.49772040  1
  Li  Li323  1  0.40000000  0.80000000  0.69772040  1
  Li  Li324  1  0.40000000  0.80000000  0.89772040  1
  Li  Li325  1  0.60000000  0.00000000  0.09772040  1
  Li  Li326  1  0.60000000  0.00000000  0.29772040  1
  Li  Li327  1  0.60000000  0.00000000  0.49772040  1
  Li  Li328  1  0.60000000  0.00000000  0.69772040  1
  Li  Li329  1  0.60000000  0.00000000  0.89772040  1
  Li  Li330  1  0.60000000  0.20000000  0.09772040  1
  Li  Li331  1  0.60000000  0.20000000  0.29772040  1
  Li  Li332  1  0.60000000  0.20000000  0.49772040  1
  Li  Li333  1  0.60000000  0.20000000  0.69772040  1
  Li  Li334  1  0.60000000  0.20000000  0.89772040  1
  Li  Li335  1  0.60000000  0.40000000  0.09772040  1
  Li  Li336  1  0.60000000  0.40000000  0.29772040  1
  Li  Li337  1  0.60000000  0.40000000  0.49772040  1
  Li  Li338  1  0.60000000  0.40000000  0.69772040  1
  Li  Li339  1  0.60000000  0.40000000  0.89772040  1
  Li  Li340  1  0.60000000  0.60000000  0.09772040  1
  Li  Li341  1  0.60000000  0.60000000  0.29772040  1
  Li  Li342  1  0.60000000  0.60000000  0.49772040  1
  Li  Li343  1  0.60000000  0.60000000  0.69772040  1
  Li  Li344  1  0.60000000  0.60000000  0.89772040  1
  Li  Li345  1  0.60000000  0.80000000  0.09772040  1
  Li  Li346  1  0.60000000  0.80000000  0.29772040  1
  Li  Li347  1  0.60000000  0.80000000  0.49772040  1
  Li  Li348  1  0.60000000  0.80000000  0.69772040  1
  Li  Li349  1  0.60000000  0.80000000  0.89772040  1
  Li  Li350  1  0.80000000  0.00000000  0.09772040  1
  Li  Li351  1  0.80000000  0.00000000  0.29772040  1
  Li  Li352  1  0.80000000  0.00000000  0.49772040  1
  Li  Li353  1  0.80000000  0.00000000  0.69772040  1
  Li  Li354  1  0.80000000  0.00000000  0.89772040  1
  Li  Li355  1  0.80000000  0.20000000  0.09772040  1
  Li  Li356  1  0.80000000  0.20000000  0.29772040  1
  Li  Li357  1  0.80000000  0.20000000  0.49772040  1
  Li  Li358  1  0.80000000  0.20000000  0.69772040  1
  Li  Li359  1  0.80000000  0.20000000  0.89772040  1
  Li  Li360  1  0.80000000  0.40000000  0.09772040  1
  Li  Li361  1  0.80000000  0.40000000  0.29772040  1
  Li  Li362  1  0.80000000  0.40000000  0.49772040  1
  Li  Li363  1  0.80000000  0.40000000  0.69772040  1
  Li  Li364  1  0.80000000  0.40000000  0.89772040  1
  Li  Li365  1  0.80000000  0.60000000  0.09772040  1
  Li  Li366  1  0.80000000  0.60000000  0.29772040  1
  Li  Li367  1  0.80000000  0.60000000  0.49772040  1
  Li  Li368  1  0.80000000  0.60000000  0.69772040  1
  Li  Li369  1  0.80000000  0.60000000  0.89772040  1
  Li  Li370  1  0.80000000  0.80000000  0.09772040  1
  Li  Li371  1  0.80000000  0.80000000  0.29772040  1
  Li  Li372  1  0.80000000  0.80000000  0.49772040  1
  Li  Li373  1  0.80000000  0.80000000  0.69772040  1
  Li  Li374  1  0.80000000  0.80000000  0.89772040  1
  Li  Li375  1  0.13333340  0.06666660  0.08056880  1
  Li  Li376  1  0.13333340  0.06666660  0.28056880  1
  Li  Li377  1  0.13333340  0.06666660  0.48056880  1
  Li  Li378  1  0.13333340  0.06666660  0.68056880  1
  Li  Li379  1  0.13333340  0.06666660  0.88056880  1
  Li  Li380  1  0.13333340  0.26666660  0.08056880  1
  Li  Li381  1  0.13333340  0.26666660  0.28056880  1
  Li  Li382  1  0.13333340  0.26666660  0.48056880  1
  Li  Li383  1  0.13333340  0.26666660  0.68056880  1
  Li  Li384  1  0.13333340  0.26666660  0.88056880  1
  Li  Li385  1  0.13333340  0.46666660  0.08056880  1
  Li  Li386  1  0.13333340  0.46666660  0.28056880  1
  Li  Li387  1  0.13333340  0.46666660  0.48056880  1
  Li  Li388  1  0.13333340  0.46666660  0.68056880  1
  Li  Li389  1  0.13333340  0.46666660  0.88056880  1
  Li  Li390  1  0.13333340  0.66666660  0.08056880  1
  Li  Li391  1  0.13333340  0.66666660  0.28056880  1
  Li  Li392  1  0.13333340  0.66666660  0.48056880  1
  Li  Li393  1  0.13333340  0.66666660  0.68056880  1
  Li  Li394  1  0.13333340  0.66666660  0.88056880  1
  Li  Li395  1  0.13333340  0.86666660  0.08056880  1
  Li  Li396  1  0.13333340  0.86666660  0.28056880  1
  Li  Li397  1  0.13333340  0.86666660  0.48056880  1
  Li  Li398  1  0.13333340  0.86666660  0.68056880  1
  Li  Li399  1  0.13333340  0.86666660  0.88056880  1
  Li  Li400  1  0.33333340  0.06666660  0.08056880  1
  Li  Li401  1  0.33333340  0.06666660  0.28056880  1
  Li  Li402  1  0.33333340  0.06666660  0.48056880  1
  Li  Li403  1  0.33333340  0.06666660  0.68056880  1
  Li  Li404  1  0.33333340  0.06666660  0.88056880  1
  Li  Li405  1  0.33333340  0.26666660  0.08056880  1
  Li  Li406  1  0.33333340  0.26666660  0.28056880  1
  Li  Li407  1  0.33333340  0.26666660  0.48056880  1
  Li  Li408  1  0.33333340  0.26666660  0.68056880  1
  Li  Li409  1  0.33333340  0.26666660  0.88056880  1
  Li  Li410  1  0.33333340  0.46666660  0.08056880  1
  Li  Li411  1  0.33333340  0.46666660  0.28056880  1
  Li  Li412  1  0.33333340  0.46666660  0.48056880  1
  Li  Li413  1  0.33333340  0.46666660  0.68056880  1
  Li  Li414  1  0.33333340  0.46666660  0.88056880  1
  Li  Li415  1  0.33333340  0.66666660  0.08056880  1
  Li  Li416  1  0.33333340  0.66666660  0.28056880  1
  Li  Li417  1  0.33333340  0.66666660  0.48056880  1
  Li  Li418  1  0.33333340  0.66666660  0.68056880  1
  Li  Li419  1  0.33333340  0.66666660  0.88056880  1
  Li  Li420  1  0.33333340  0.86666660  0.08056880  1
  Li  Li421  1  0.33333340  0.86666660  0.28056880  1
  Li  Li422  1  0.33333340  0.86666660  0.48056880  1
  Li  Li423  1  0.33333340  0.86666660  0.68056880  1
  Li  Li424  1  0.33333340  0.86666660  0.88056880  1
  Li  Li425  1  0.53333340  0.06666660  0.08056880  1
  Li  Li426  1  0.53333340  0.06666660  0.28056880  1
  Li  Li427  1  0.53333340  0.06666660  0.48056880  1
  Li  Li428  1  0.53333340  0.06666660  0.68056880  1
  Li  Li429  1  0.53333340  0.06666660  0.88056880  1
  Li  Li430  1  0.53333340  0.26666660  0.08056880  1
  Li  Li431  1  0.53333340  0.26666660  0.28056880  1
  Li  Li432  1  0.53333340  0.26666660  0.48056880  1
  Li  Li433  1  0.53333340  0.26666660  0.68056880  1
  Li  Li434  1  0.53333340  0.26666660  0.88056880  1
  Li  Li435  1  0.53333340  0.46666660  0.08056880  1
  Li  Li436  1  0.53333340  0.46666660  0.28056880  1
  Li  Li437  1  0.53333340  0.46666660  0.48056880  1
  Li  Li438  1  0.53333340  0.46666660  0.68056880  1
  Li  Li439  1  0.53333340  0.46666660  0.88056880  1
  Li  Li440  1  0.53333340  0.66666660  0.08056880  1
  Li  Li441  1  0.53333340  0.66666660  0.28056880  1
  Li  Li442  1  0.53333340  0.66666660  0.48056880  1
  Li  Li443  1  0.53333340  0.66666660  0.68056880  1
  Li  Li444  1  0.53333340  0.66666660  0.88056880  1
  Li  Li445  1  0.53333340  0.86666660  0.08056880  1
  Li  Li446  1  0.53333340  0.86666660  0.28056880  1
  Li  Li447  1  0.53333340  0.86666660  0.48056880  1
  Li  Li448  1  0.53333340  0.86666660  0.68056880  1
  Li  Li449  1  0.53333340  0.86666660  0.88056880  1
  Li  Li450  1  0.73333340  0.06666660  0.08056880  1
  Li  Li451  1  0.73333340  0.06666660  0.28056880  1
  Li  Li452  1  0.73333340  0.06666660  0.48056880  1
  Li  Li453  1  0.73333340  0.06666660  0.68056880  1
  Li  Li454  1  0.73333340  0.06666660  0.88056880  1
  Li  Li455  1  0.73333340  0.26666660  0.08056880  1
  Li  Li456  1  0.73333340  0.26666660  0.28056880  1
  Li  Li457  1  0.73333340  0.26666660  0.48056880  1
  Li  Li458  1  0.73333340  0.26666660  0.68056880  1
  Li  Li459  1  0.73333340  0.26666660  0.88056880  1
  Li  Li460  1  0.73333340  0.46666660  0.08056880  1
  Li  Li461  1  0.73333340  0.46666660  0.28056880  1
  Li  Li462  1  0.73333340  0.46666660  0.48056880  1
  Li  Li463  1  0.73333340  0.46666660  0.68056880  1
  Li  Li464  1  0.73333340  0.46666660  0.88056880  1
  Li  Li465  1  0.73333340  0.66666660  0.08056880  1
  Li  Li466  1  0.73333340  0.66666660  0.28056880  1
  Li  Li467  1  0.73333340  0.66666660  0.48056880  1
  Li  Li468  1  0.73333340  0.66666660  0.68056880  1
  Li  Li469  1  0.73333340  0.66666660  0.88056880  1
  Li  Li470  1  0.73333340  0.86666660  0.08056880  1
  Li  Li471  1  0.73333340  0.86666660  0.28056880  1
  Li  Li472  1  0.73333340  0.86666660  0.48056880  1
  Li  Li473  1  0.73333340  0.86666660  0.68056880  1
  Li  Li474  1  0.73333340  0.86666660  0.88056880  1
  Li  Li475  1  0.93333340  0.06666660  0.08056880  1
  Li  Li476  1  0.93333340  0.06666660  0.28056880  1
  Li  Li477  1  0.93333340  0.06666660  0.48056880  1
  Li  Li478  1  0.93333340  0.06666660  0.68056880  1
  Li  Li479  1  0.93333340  0.06666660  0.88056880  1
  Li  Li480  1  0.93333340  0.26666660  0.08056880  1
  Li  Li481  1  0.93333340  0.26666660  0.28056880  1
  Li  Li482  1  0.93333340  0.26666660  0.48056880  1
  Li  Li483  1  0.93333340  0.26666660  0.68056880  1
  Li  Li484  1  0.93333340  0.26666660  0.88056880  1
  Li  Li485  1  0.93333340  0.46666660  0.08056880  1
  Li  Li486  1  0.93333340  0.46666660  0.28056880  1
  Li  Li487  1  0.93333340  0.46666660  0.48056880  1
  Li  Li488  1  0.93333340  0.46666660  0.68056880  1
  Li  Li489  1  0.93333340  0.46666660  0.88056880  1
  Li  Li490  1  0.93333340  0.66666660  0.08056880  1
  Li  Li491  1  0.93333340  0.66666660  0.28056880  1
  Li  Li492  1  0.93333340  0.66666660  0.48056880  1
  Li  Li493  1  0.93333340  0.66666660  0.68056880  1
  Li  Li494  1  0.93333340  0.66666660  0.88056880  1
  Li  Li495  1  0.93333340  0.86666660  0.08056880  1
  Li  Li496  1  0.93333340  0.86666660  0.28056880  1
  Li  Li497  1  0.93333340  0.86666660  0.48056880  1
  Li  Li498  1  0.93333340  0.86666660  0.68056880  1
  Li  Li499  1  0.93333340  0.86666660  0.88056880  1
  Fe  Fe500  1  0.03405140  0.16594860  0.04264900  1
  Fe  Fe501  1  0.03405140  0.16594860  0.24264900  1
  Fe  Fe502  1  0.03405140  0.16594860  0.44264900  1
  Fe  Fe503  1  0.03405140  0.16594860  0.64264900  1
  Fe  Fe504  1  0.03405140  0.16594860  0.84264900  1
  Fe  Fe505  1  0.03405140  0.36594860  0.04264900  1
  Fe  Fe506  1  0.03405140  0.36594860  0.24264900  1
  Fe  Fe507  1  0.03405140  0.36594860  0.44264900  1
  Fe  Fe508  1  0.03405140  0.36594860  0.64264900  1
  Fe  Fe509  1  0.03405140  0.36594860  0.84264900  1
  Fe  Fe510  1  0.03405140  0.56594860  0.04264900  1
  Fe  Fe511  1  0.03405140  0.56594860  0.24264900  1
  Fe  Fe512  1  0.03405140  0.56594860  0.44264900  1
  Fe  Fe513  1  0.03405140  0.56594860  0.64264900  1
  Fe  Fe514  1  0.03405140  0.56594860  0.84264900  1
  Fe  Fe515  1  0.03405140  0.76594860  0.04264900  1
  Fe  Fe516  1  0.03405140  0.76594860  0.24264900  1
  Fe  Fe517  1  0.03405140  0.76594860  0.44264900  1
  Fe  Fe518  1  0.03405140  0.76594860  0.64264900  1
  Fe  Fe519  1  0.03405140  0.76594860  0.84264900  1
  Fe  Fe520  1  0.03405140  0.96594860  0.04264900  1
  Fe  Fe521  1  0.03405140  0.96594860  0.24264900  1
  Fe  Fe522  1  0.03405140  0.96594860  0.44264900  1
  Fe  Fe523  1  0.03405140  0.96594860  0.64264900  1
  Fe  Fe524  1  0.03405140  0.96594860  0.84264900  1
  Fe  Fe525  1  0.23405140  0.16594860  0.04264900  1
  Fe  Fe526  1  0.23405140  0.16594860  0.24264900  1
  Fe  Fe527  1  0.23405140  0.16594860  0.44264900  1
  Fe  Fe528  1  0.23405140  0.16594860  0.64264900  1
  Fe  Fe529  1  0.23405140  0.16594860  0.84264900  1
  Fe  Fe530  1  0.23405140  0.36594860  0.04264900  1
  Fe  Fe531  1  0.23405140  0.36594860  0.24264900  1
  Fe  Fe532  1  0.23405140  0.36594860  0.44264900  1
  Fe  Fe533  1  0.23405140  0.36594860  0.64264900  1
  Fe  Fe534  1  0.23405140  0.36594860  0.84264900  1
  Fe  Fe535  1  0.23405140  0.56594860  0.04264900  1
  Fe  Fe536  1  0.23405140  0.56594860  0.24264900  1
  Fe  Fe537  1  0.23405140  0.56594860  0.44264900  1
  Fe  Fe538  1  0.23405140  0.56594860  0.64264900  1
  Fe  Fe539  1  0.23405140  0.56594860  0.84264900  1
  Fe  Fe540  1  0.23405140  0.76594860  0.04264900  1
  Fe  Fe541  1  0.23405140  0.76594860  0.24264900  1
  Fe  Fe542  1  0.23405140  0.76594860  0.44264900  1
  Fe  Fe543  1  0.23405140  0.76594860  0.64264900  1
  Fe  Fe544  1  0.23405140  0.76594860  0.84264900  1
  Fe  Fe545  1  0.23405140  0.96594860  0.04264900  1
  Fe  Fe546  1  0.23405140  0.96594860  0.24264900  1
  Fe  Fe547  1  0.23405140  0.96594860  0.44264900  1
  Fe  Fe548  1  0.23405140  0.96594860  0.64264900  1
  Fe  Fe549  1  0.23405140  0.96594860  0.84264900  1
  Fe  Fe550  1  0.43405140  0.16594860  0.04264900  1
  Fe  Fe551  1  0.43405140  0.16594860  0.24264900  1
  Fe  Fe552  1  0.43405140  0.16594860  0.44264900  1
  Fe  Fe553  1  0.43405140  0.16594860  0.64264900  1
  Fe  Fe554  1  0.43405140  0.16594860  0.84264900  1
  Fe  Fe555  1  0.43405140  0.36594860  0.04264900  1
  Fe  Fe556  1  0.43405140  0.36594860  0.24264900  1
  Fe  Fe557  1  0.43405140  0.36594860  0.44264900  1
  Fe  Fe558  1  0.43405140  0.36594860  0.64264900  1
  Fe  Fe559  1  0.43405140  0.36594860  0.84264900  1
  Fe  Fe560  1  0.43405140  0.56594860  0.04264900  1
  Fe  Fe561  1  0.43405140  0.56594860  0.24264900  1
  Fe  Fe562  1  0.43405140  0.56594860  0.44264900  1
  Fe  Fe563  1  0.43405140  0.56594860  0.64264900  1
  Fe  Fe564  1  0.43405140  0.56594860  0.84264900  1
  Fe  Fe565  1  0.43405140  0.76594860  0.04264900  1
  Fe  Fe566  1  0.43405140  0.76594860  0.24264900  1
  Fe  Fe567  1  0.43405140  0.76594860  0.44264900  1
  Fe  Fe568  1  0.43405140  0.76594860  0.64264900  1
  Fe  Fe569  1  0.43405140  0.76594860  0.84264900  1
  Fe  Fe570  1  0.43405140  0.96594860  0.04264900  1
  Fe  Fe571  1  0.43405140  0.96594860  0.24264900  1
  Fe  Fe572  1  0.43405140  0.96594860  0.44264900  1
  Fe  Fe573  1  0.43405140  0.96594860  0.64264900  1
  Fe  Fe574  1  0.43405140  0.96594860  0.84264900  1
  Fe  Fe575  1  0.63405140  0.16594860  0.04264900  1
  Fe  Fe576  1  0.63405140  0.16594860  0.24264900  1
  Fe  Fe577  1  0.63405140  0.16594860  0.44264900  1
  Fe  Fe578  1  0.63405140  0.16594860  0.64264900  1
  Fe  Fe579  1  0.63405140  0.16594860  0.84264900  1
  Fe  Fe580  1  0.63405140  0.36594860  0.04264900  1
  Fe  Fe581  1  0.63405140  0.36594860  0.24264900  1
  Fe  Fe582  1  0.63405140  0.36594860  0.44264900  1
  Fe  Fe583  1  0.63405140  0.36594860  0.64264900  1
  Fe  Fe584  1  0.63405140  0.36594860  0.84264900  1
  Fe  Fe585  1  0.63405140  0.56594860  0.04264900  1
  Fe  Fe586  1  0.63405140  0.56594860  0.24264900  1
  Fe  Fe587  1  0.63405140  0.56594860  0.44264900  1
  Fe  Fe588  1  0.63405140  0.56594860  0.64264900  1
  Fe  Fe589  1  0.63405140  0.56594860  0.84264900  1
  Fe  Fe590  1  0.63405140  0.76594860  0.04264900  1
  Fe  Fe591  1  0.63405140  0.76594860  0.24264900  1
  Fe  Fe592  1  0.63405140  0.76594860  0.44264900  1
  Fe  Fe593  1  0.63405140  0.76594860  0.64264900  1
  Fe  Fe594  1  0.63405140  0.76594860  0.84264900  1
  Fe  Fe595  1  0.63405140  0.96594860  0.04264900  1
  Fe  Fe596  1  0.63405140  0.96594860  0.24264900  1
  Fe  Fe597  1  0.63405140  0.96594860  0.44264900  1
  Fe  Fe598  1  0.63405140  0.96594860  0.64264900  1
  Fe  Fe599  1  0.63405140  0.96594860  0.84264900  1
  Fe  Fe600  1  0.83405140  0.16594860  0.04264900  1
  Fe  Fe601  1  0.83405140  0.16594860  0.24264900  1
  Fe  Fe602  1  0.83405140  0.16594860  0.44264900  1
  Fe  Fe603  1  0.83405140  0.16594860  0.64264900  1
  Fe  Fe604  1  0.83405140  0.16594860  0.84264900  1
  Fe  Fe605  1  0.83405140  0.36594860  0.04264900  1
  Fe  Fe606  1  0.83405140  0.36594860  0.24264900  1
  Fe  Fe607  1  0.83405140  0.36594860  0.44264900  1
  Fe  Fe608  1  0.83405140  0.36594860  0.64264900  1
  Fe  Fe609  1  0.83405140  0.36594860  0.84264900  1
  Fe  Fe610  1  0.83405140  0.56594860  0.04264900  1
  Fe  Fe611  1  0.83405140  0.56594860  0.24264900  1
  Fe  Fe612  1  0.83405140  0.56594860  0.44264900  1
  Fe  Fe613  1  0.83405140  0.56594860  0.64264900  1
  Fe  Fe614  1  0.83405140  0.56594860  0.84264900  1
  Fe  Fe615  1  0.83405140  0.76594860  0.04264900  1
  Fe  Fe616  1  0.83405140  0.76594860  0.24264900  1
  Fe  Fe617  1  0.83405140  0.76594860  0.44264900  1
  Fe  Fe618  1  0.83405140  0.76594860  0.64264900  1
  Fe  Fe619  1  0.83405140  0.76594860  0.84264900  1
  Fe  Fe620  1  0.83405140  0.96594860  0.04264900  1
  Fe  Fe621  1  0.83405140  0.96594860  0.24264900  1
  Fe  Fe622  1  0.83405140  0.96594860  0.44264900  1
  Fe  Fe623  1  0.83405140  0.96594860  0.64264900  1
  Fe  Fe624  1  0.83405140  0.96594860  0.84264900  1
  Fe  Fe625  1  0.03405140  0.06810300  0.04264900  1
  Fe  Fe626  1  0.03405140  0.06810300  0.24264900  1
  Fe  Fe627  1  0.03405140  0.06810300  0.44264900  1
  Fe  Fe628  1  0.03405140  0.06810300  0.64264900  1
  Fe  Fe629  1  0.03405140  0.06810300  0.84264900  1
  Fe  Fe630  1  0.03405140  0.26810300  0.04264900  1
  Fe  Fe631  1  0.03405140  0.26810300  0.24264900  1
  Fe  Fe632  1  0.03405140  0.26810300  0.44264900  1
  Fe  Fe633  1  0.03405140  0.26810300  0.64264900  1
  Fe  Fe634  1  0.03405140  0.26810300  0.84264900  1
  Fe  Fe635  1  0.03405140  0.46810300  0.04264900  1
  Fe  Fe636  1  0.03405140  0.46810300  0.24264900  1
  Fe  Fe637  1  0.03405140  0.46810300  0.44264900  1
  Fe  Fe638  1  0.03405140  0.46810300  0.64264900  1
  Fe  Fe639  1  0.03405140  0.46810300  0.84264900  1
  Fe  Fe640  1  0.03405140  0.66810300  0.04264900  1
  Fe  Fe641  1  0.03405140  0.66810300  0.24264900  1
  Fe  Fe642  1  0.03405140  0.66810300  0.44264900  1
  Fe  Fe643  1  0.03405140  0.66810300  0.64264900  1
  Fe  Fe644  1  0.03405140  0.66810300  0.84264900  1
  Fe  Fe645  1  0.03405140  0.86810300  0.04264900  1
  Fe  Fe646  1  0.03405140  0.86810300  0.24264900  1
  Fe  Fe647  1  0.03405140  0.86810300  0.44264900  1
  Fe  Fe648  1  0.03405140  0.86810300  0.64264900  1
  Fe  Fe649  1  0.03405140  0.86810300  0.84264900  1
  Fe  Fe650  1  0.23405140  0.06810300  0.04264900  1
  Fe  Fe651  1  0.23405140  0.06810300  0.24264900  1
  Fe  Fe652  1  0.23405140  0.06810300  0.44264900  1
  Fe  Fe653  1  0.23405140  0.06810300  0.64264900  1
  Fe  Fe654  1  0.23405140  0.06810300  0.84264900  1
  Fe  Fe655  1  0.23405140  0.26810300  0.04264900  1
  Fe  Fe656  1  0.23405140  0.26810300  0.24264900  1
  Fe  Fe657  1  0.23405140  0.26810300  0.44264900  1
  Fe  Fe658  1  0.23405140  0.26810300  0.64264900  1
  Fe  Fe659  1  0.23405140  0.26810300  0.84264900  1
  Fe  Fe660  1  0.23405140  0.46810300  0.04264900  1
  Fe  Fe661  1  0.23405140  0.46810300  0.24264900  1
  Fe  Fe662  1  0.23405140  0.46810300  0.44264900  1
  Fe  Fe663  1  0.23405140  0.46810300  0.64264900  1
  Fe  Fe664  1  0.23405140  0.46810300  0.84264900  1
  Fe  Fe665  1  0.23405140  0.66810300  0.04264900  1
  Fe  Fe666  1  0.23405140  0.66810300  0.24264900  1
  Fe  Fe667  1  0.23405140  0.66810300  0.44264900  1
  Fe  Fe668  1  0.23405140  0.66810300  0.64264900  1
  Fe  Fe669  1  0.23405140  0.66810300  0.84264900  1
  Fe  Fe670  1  0.23405140  0.86810300  0.04264900  1
  Fe  Fe671  1  0.23405140  0.86810300  0.24264900  1
  Fe  Fe672  1  0.23405140  0.86810300  0.44264900  1
  Fe  Fe673  1  0.23405140  0.86810300  0.64264900  1
  Fe  Fe674  1  0.23405140  0.86810300  0.84264900  1
  Fe  Fe675  1  0.43405140  0.06810300  0.04264900  1
  Fe  Fe676  1  0.43405140  0.06810300  0.24264900  1
  Fe  Fe677  1  0.43405140  0.06810300  0.44264900  1
  Fe  Fe678  1  0.43405140  0.06810300  0.64264900  1
  Fe  Fe679  1  0.43405140  0.06810300  0.84264900  1
  Fe  Fe680  1  0.43405140  0.26810300  0.04264900  1
  Fe  Fe681  1  0.43405140  0.26810300  0.24264900  1
  Fe  Fe682  1  0.43405140  0.26810300  0.44264900  1
  Fe  Fe683  1  0.43405140  0.26810300  0.64264900  1
  Fe  Fe684  1  0.43405140  0.26810300  0.84264900  1
  Fe  Fe685  1  0.43405140  0.46810300  0.04264900  1
  Fe  Fe686  1  0.43405140  0.46810300  0.24264900  1
  Fe  Fe687  1  0.43405140  0.46810300  0.44264900  1
  Fe  Fe688  1  0.43405140  0.46810300  0.64264900  1
  Fe  Fe689  1  0.43405140  0.46810300  0.84264900  1
  Fe  Fe690  1  0.43405140  0.66810300  0.04264900  1
  Fe  Fe691  1  0.43405140  0.66810300  0.24264900  1
  Fe  Fe692  1  0.43405140  0.66810300  0.44264900  1
  Fe  Fe693  1  0.43405140  0.66810300  0.64264900  1
  Fe  Fe694  1  0.43405140  0.66810300  0.84264900  1
  Fe  Fe695  1  0.43405140  0.86810300  0.04264900  1
  Fe  Fe696  1  0.43405140  0.86810300  0.24264900  1
  Fe  Fe697  1  0.43405140  0.86810300  0.44264900  1
  Fe  Fe698  1  0.43405140  0.86810300  0.64264900  1
  Fe  Fe699  1  0.43405140  0.86810300  0.84264900  1
  Fe  Fe700  1  0.63405140  0.06810300  0.04264900  1
  Fe  Fe701  1  0.63405140  0.06810300  0.24264900  1
  Fe  Fe702  1  0.63405140  0.06810300  0.44264900  1
  Fe  Fe703  1  0.63405140  0.06810300  0.64264900  1
  Fe  Fe704  1  0.63405140  0.06810300  0.84264900  1
  Fe  Fe705  1  0.63405140  0.26810300  0.04264900  1
  Fe  Fe706  1  0.63405140  0.26810300  0.24264900  1
  Fe  Fe707  1  0.63405140  0.26810300  0.44264900  1
  Fe  Fe708  1  0.63405140  0.26810300  0.64264900  1
  Fe  Fe709  1  0.63405140  0.26810300  0.84264900  1
  Fe  Fe710  1  0.63405140  0.46810300  0.04264900  1
  Fe  Fe711  1  0.63405140  0.46810300  0.24264900  1
  Fe  Fe712  1  0.63405140  0.46810300  0.44264900  1
  Fe  Fe713  1  0.63405140  0.46810300  0.64264900  1
  Fe  Fe714  1  0.63405140  0.46810300  0.84264900  1
  Fe  Fe715  1  0.63405140  0.66810300  0.04264900  1
  Fe  Fe716  1  0.63405140  0.66810300  0.24264900  1
  Fe  Fe717  1  0.63405140  0.66810300  0.44264900  1
  Fe  Fe718  1  0.63405140  0.66810300  0.64264900  1
  Fe  Fe719  1  0.63405140  0.66810300  0.84264900  1
  Fe  Fe720  1  0.63405140  0.86810300  0.04264900  1
  Fe  Fe721  1  0.63405140  0.86810300  0.24264900  1
  Fe  Fe722  1  0.63405140  0.86810300  0.44264900  1
  Fe  Fe723  1  0.63405140  0.86810300  0.64264900  1
  Fe  Fe724  1  0.63405140  0.86810300  0.84264900  1
  Fe  Fe725  1  0.83405140  0.06810300  0.04264900  1
  Fe  Fe726  1  0.83405140  0.06810300  0.24264900  1
  Fe  Fe727  1  0.83405140  0.06810300  0.44264900  1
  Fe  Fe728  1  0.83405140  0.06810300  0.64264900  1
  Fe  Fe729  1  0.83405140  0.06810300  0.84264900  1
  Fe  Fe730  1  0.83405140  0.26810300  0.04264900  1
  Fe  Fe731  1  0.83405140  0.26810300  0.24264900  1
  Fe  Fe732  1  0.83405140  0.26810300  0.44264900  1
  Fe  Fe733  1  0.83405140  0.26810300  0.64264900  1
  Fe  Fe734  1  0.83405140  0.26810300  0.84264900  1
  Fe  Fe735  1  0.83405140  0.46810300  0.04264900  1
  Fe  Fe736  1  0.83405140  0.46810300  0.24264900  1
  Fe  Fe737  1  0.83405140  0.46810300  0.44264900  1
  Fe  Fe738  1  0.83405140  0.46810300  0.64264900  1
  Fe  Fe739  1  0.83405140  0.46810300  0.84264900  1
  Fe  Fe740  1  0.83405140  0.66810300  0.04264900  1
  Fe  Fe741  1  0.83405140  0.66810300  0.24264900  1
  Fe  Fe742  1  0.83405140  0.66810300  0.44264900  1
  Fe  Fe743  1  0.83405140  0.66810300  0.64264900  1
  Fe  Fe744  1  0.83405140  0.66810300  0.84264900  1
  Fe  Fe745  1  0.83405140  0.86810300  0.04264900  1
  Fe  Fe746  1  0.83405140  0.86810300  0.24264900  1
  Fe  Fe747  1  0.83405140  0.86810300  0.44264900  1
  Fe  Fe748  1  0.83405140  0.86810300  0.64264900  1
  Fe  Fe749  1  0.83405140  0.86810300  0.84264900  1
  Fe  Fe750  1  0.13189700  0.16594860  0.04264900  1
  Fe  Fe751  1  0.13189700  0.16594860  0.24264900  1
  Fe  Fe752  1  0.13189700  0.16594860  0.44264900  1
  Fe  Fe753  1  0.13189700  0.16594860  0.64264900  1
  Fe  Fe754  1  0.13189700  0.16594860  0.84264900  1
  Fe  Fe755  1  0.13189700  0.36594860  0.04264900  1
  Fe  Fe756  1  0.13189700  0.36594860  0.24264900  1
  Fe  Fe757  1  0.13189700  0.36594860  0.44264900  1
  Fe  Fe758  1  0.13189700  0.36594860  0.64264900  1
  Fe  Fe759  1  0.13189700  0.36594860  0.84264900  1
  Fe  Fe760  1  0.13189700  0.56594860  0.04264900  1
  Fe  Fe761  1  0.13189700  0.56594860  0.24264900  1
  Fe  Fe762  1  0.13189700  0.56594860  0.44264900  1
  Fe  Fe763  1  0.13189700  0.56594860  0.64264900  1
  Fe  Fe764  1  0.13189700  0.56594860  0.84264900  1
  Fe  Fe765  1  0.13189700  0.76594860  0.04264900  1
  Fe  Fe766  1  0.13189700  0.76594860  0.24264900  1
  Fe  Fe767  1  0.13189700  0.76594860  0.44264900  1
  Fe  Fe768  1  0.13189700  0.76594860  0.64264900  1
  Fe  Fe769  1  0.13189700  0.76594860  0.84264900  1
  Fe  Fe770  1  0.13189700  0.96594860  0.04264900  1
  Fe  Fe771  1  0.13189700  0.96594860  0.24264900  1
  Fe  Fe772  1  0.13189700  0.96594860  0.44264900  1
  Fe  Fe773  1  0.13189700  0.96594860  0.64264900  1
  Fe  Fe774  1  0.13189700  0.96594860  0.84264900  1
  Fe  Fe775  1  0.33189700  0.16594860  0.04264900  1
  Fe  Fe776  1  0.33189700  0.16594860  0.24264900  1
  Fe  Fe777  1  0.33189700  0.16594860  0.44264900  1
  Fe  Fe778  1  0.33189700  0.16594860  0.64264900  1
  Fe  Fe779  1  0.33189700  0.16594860  0.84264900  1
  Fe  Fe780  1  0.33189700  0.36594860  0.04264900  1
  Fe  Fe781  1  0.33189700  0.36594860  0.24264900  1
  Fe  Fe782  1  0.33189700  0.36594860  0.44264900  1
  Fe  Fe783  1  0.33189700  0.36594860  0.64264900  1
  Fe  Fe784  1  0.33189700  0.36594860  0.84264900  1
  Fe  Fe785  1  0.33189700  0.56594860  0.04264900  1
  Fe  Fe786  1  0.33189700  0.56594860  0.24264900  1
  Fe  Fe787  1  0.33189700  0.56594860  0.44264900  1
  Fe  Fe788  1  0.33189700  0.56594860  0.64264900  1
  Fe  Fe789  1  0.33189700  0.56594860  0.84264900  1
  Fe  Fe790  1  0.33189700  0.76594860  0.04264900  1
  Fe  Fe791  1  0.33189700  0.76594860  0.24264900  1
  Fe  Fe792  1  0.33189700  0.76594860  0.44264900  1
  Fe  Fe793  1  0.33189700  0.76594860  0.64264900  1
  Fe  Fe794  1  0.33189700  0.76594860  0.84264900  1
  Fe  Fe795  1  0.33189700  0.96594860  0.04264900  1
  Fe  Fe796  1  0.33189700  0.96594860  0.24264900  1
  Fe  Fe797  1  0.33189700  0.96594860  0.44264900  1
  Fe  Fe798  1  0.33189700  0.96594860  0.64264900  1
  Fe  Fe799  1  0.33189700  0.96594860  0.84264900  1
  Fe  Fe800  1  0.53189700  0.16594860  0.04264900  1
  Fe  Fe801  1  0.53189700  0.16594860  0.24264900  1
  Fe  Fe802  1  0.53189700  0.16594860  0.44264900  1
  Fe  Fe803  1  0.53189700  0.16594860  0.64264900  1
  Fe  Fe804  1  0.53189700  0.16594860  0.84264900  1
  Fe  Fe805  1  0.53189700  0.36594860  0.04264900  1
  Fe  Fe806  1  0.53189700  0.36594860  0.24264900  1
  Fe  Fe807  1  0.53189700  0.36594860  0.44264900  1
  Fe  Fe808  1  0.53189700  0.36594860  0.64264900  1
  Fe  Fe809  1  0.53189700  0.36594860  0.84264900  1
  Fe  Fe810  1  0.53189700  0.56594860  0.04264900  1
  Fe  Fe811  1  0.53189700  0.56594860  0.24264900  1
  Fe  Fe812  1  0.53189700  0.56594860  0.44264900  1
  Fe  Fe813  1  0.53189700  0.56594860  0.64264900  1
  Fe  Fe814  1  0.53189700  0.56594860  0.84264900  1
  Fe  Fe815  1  0.53189700  0.76594860  0.04264900  1
  Fe  Fe816  1  0.53189700  0.76594860  0.24264900  1
  Fe  Fe817  1  0.53189700  0.76594860  0.44264900  1
  Fe  Fe818  1  0.53189700  0.76594860  0.64264900  1
  Fe  Fe819  1  0.53189700  0.76594860  0.84264900  1
  Fe  Fe820  1  0.53189700  0.96594860  0.04264900  1
  Fe  Fe821  1  0.53189700  0.96594860  0.24264900  1
  Fe  Fe822  1  0.53189700  0.96594860  0.44264900  1
  Fe  Fe823  1  0.53189700  0.96594860  0.64264900  1
  Fe  Fe824  1  0.53189700  0.96594860  0.84264900  1
  Fe  Fe825  1  0.73189700  0.16594860  0.04264900  1
  Fe  Fe826  1  0.73189700  0.16594860  0.24264900  1
  Fe  Fe827  1  0.73189700  0.16594860  0.44264900  1
  Fe  Fe828  1  0.73189700  0.16594860  0.64264900  1
  Fe  Fe829  1  0.73189700  0.16594860  0.84264900  1
  Fe  Fe830  1  0.73189700  0.36594860  0.04264900  1
  Fe  Fe831  1  0.73189700  0.36594860  0.24264900  1
  Fe  Fe832  1  0.73189700  0.36594860  0.44264900  1
  Fe  Fe833  1  0.73189700  0.36594860  0.64264900  1
  Fe  Fe834  1  0.73189700  0.36594860  0.84264900  1
  Fe  Fe835  1  0.73189700  0.56594860  0.04264900  1
  Fe  Fe836  1  0.73189700  0.56594860  0.24264900  1
  Fe  Fe837  1  0.73189700  0.56594860  0.44264900  1
  Fe  Fe838  1  0.73189700  0.56594860  0.64264900  1
  Fe  Fe839  1  0.73189700  0.56594860  0.84264900  1
  Fe  Fe840  1  0.73189700  0.76594860  0.04264900  1
  Fe  Fe841  1  0.73189700  0.76594860  0.24264900  1
  Fe  Fe842  1  0.73189700  0.76594860  0.44264900  1
  Fe  Fe843  1  0.73189700  0.76594860  0.64264900  1
  Fe  Fe844  1  0.73189700  0.76594860  0.84264900  1
  Fe  Fe845  1  0.73189700  0.96594860  0.04264900  1
  Fe  Fe846  1  0.73189700  0.96594860  0.24264900  1
  Fe  Fe847  1  0.73189700  0.96594860  0.44264900  1
  Fe  Fe848  1  0.73189700  0.96594860  0.64264900  1
  Fe  Fe849  1  0.73189700  0.96594860  0.84264900  1
  Fe  Fe850  1  0.93189700  0.16594860  0.04264900  1
  Fe  Fe851  1  0.93189700  0.16594860  0.24264900  1
  Fe  Fe852  1  0.93189700  0.16594860  0.44264900  1
  Fe  Fe853  1  0.93189700  0.16594860  0.64264900  1
  Fe  Fe854  1  0.93189700  0.16594860  0.84264900  1
  Fe  Fe855  1  0.93189700  0.36594860  0.04264900  1
  Fe  Fe856  1  0.93189700  0.36594860  0.24264900  1
  Fe  Fe857  1  0.93189700  0.36594860  0.44264900  1
  Fe  Fe858  1  0.93189700  0.36594860  0.64264900  1
  Fe  Fe859  1  0.93189700  0.36594860  0.84264900  1
  Fe  Fe860  1  0.93189700  0.56594860  0.04264900  1
  Fe  Fe861  1  0.93189700  0.56594860  0.24264900  1
  Fe  Fe862  1  0.93189700  0.56594860  0.44264900  1
  Fe  Fe863  1  0.93189700  0.56594860  0.64264900  1
  Fe  Fe864  1  0.93189700  0.56594860  0.84264900  1
  Fe  Fe865  1  0.93189700  0.76594860  0.04264900  1
  Fe  Fe866  1  0.93189700  0.76594860  0.24264900  1
  Fe  Fe867  1  0.93189700  0.76594860  0.44264900  1
  Fe  Fe868  1  0.93189700  0.76594860  0.64264900  1
  Fe  Fe869  1  0.93189700  0.76594860  0.84264900  1
  Fe  Fe870  1  0.93189700  0.96594860  0.04264900  1
  Fe  Fe871  1  0.93189700  0.96594860  0.24264900  1
  Fe  Fe872  1  0.93189700  0.96594860  0.44264900  1
  Fe  Fe873  1  0.93189700  0.96594860  0.64264900  1
  Fe  Fe874  1  0.93189700  0.96594860  0.84264900  1
  Fe  Fe875  1  0.06810300  0.03405140  0.14264900  1
  Fe  Fe876  1  0.06810300  0.03405140  0.34264900  1
  Fe  Fe877  1  0.06810300  0.03405140  0.54264900  1
  Fe  Fe878  1  0.06810300  0.03405140  0.74264900  1
  Fe  Fe879  1  0.06810300  0.03405140  0.94264900  1
  Fe  Fe880  1  0.06810300  0.23405140  0.14264900  1
  Fe  Fe881  1  0.06810300  0.23405140  0.34264900  1
  Fe  Fe882  1  0.06810300  0.23405140  0.54264900  1
  Fe  Fe883  1  0.06810300  0.23405140  0.74264900  1
  Fe  Fe884  1  0.06810300  0.23405140  0.94264900  1
  Fe  Fe885  1  0.06810300  0.43405140  0.14264900  1
  Fe  Fe886  1  0.06810300  0.43405140  0.34264900  1
  Fe  Fe887  1  0.06810300  0.43405140  0.54264900  1
  Fe  Fe888  1  0.06810300  0.43405140  0.74264900  1
  Fe  Fe889  1  0.06810300  0.43405140  0.94264900  1
  Fe  Fe890  1  0.06810300  0.63405140  0.14264900  1
  Fe  Fe891  1  0.06810300  0.63405140  0.34264900  1
  Fe  Fe892  1  0.06810300  0.63405140  0.54264900  1
  Fe  Fe893  1  0.06810300  0.63405140  0.74264900  1
  Fe  Fe894  1  0.06810300  0.63405140  0.94264900  1
  Fe  Fe895  1  0.06810300  0.83405140  0.14264900  1
  Fe  Fe896  1  0.06810300  0.83405140  0.34264900  1
  Fe  Fe897  1  0.06810300  0.83405140  0.54264900  1
  Fe  Fe898  1  0.06810300  0.83405140  0.74264900  1
  Fe  Fe899  1  0.06810300  0.83405140  0.94264900  1
  Fe  Fe900  1  0.26810300  0.03405140  0.14264900  1
  Fe  Fe901  1  0.26810300  0.03405140  0.34264900  1
  Fe  Fe902  1  0.26810300  0.03405140  0.54264900  1
  Fe  Fe903  1  0.26810300  0.03405140  0.74264900  1
  Fe  Fe904  1  0.26810300  0.03405140  0.94264900  1
  Fe  Fe905  1  0.26810300  0.23405140  0.14264900  1
  Fe  Fe906  1  0.26810300  0.23405140  0.34264900  1
  Fe  Fe907  1  0.26810300  0.23405140  0.54264900  1
  Fe  Fe908  1  0.26810300  0.23405140  0.74264900  1
  Fe  Fe909  1  0.26810300  0.23405140  0.94264900  1
  Fe  Fe910  1  0.26810300  0.43405140  0.14264900  1
  Fe  Fe911  1  0.26810300  0.43405140  0.34264900  1
  Fe  Fe912  1  0.26810300  0.43405140  0.54264900  1
  Fe  Fe913  1  0.26810300  0.43405140  0.74264900  1
  Fe  Fe914  1  0.26810300  0.43405140  0.94264900  1
  Fe  Fe915  1  0.26810300  0.63405140  0.14264900  1
  Fe  Fe916  1  0.26810300  0.63405140  0.34264900  1
  Fe  Fe917  1  0.26810300  0.63405140  0.54264900  1
  Fe  Fe918  1  0.26810300  0.63405140  0.74264900  1
  Fe  Fe919  1  0.26810300  0.63405140  0.94264900  1
  Fe  Fe920  1  0.26810300  0.83405140  0.14264900  1
  Fe  Fe921  1  0.26810300  0.83405140  0.34264900  1
  Fe  Fe922  1  0.26810300  0.83405140  0.54264900  1
  Fe  Fe923  1  0.26810300  0.83405140  0.74264900  1
  Fe  Fe924  1  0.26810300  0.83405140  0.94264900  1
  Fe  Fe925  1  0.46810300  0.03405140  0.14264900  1
  Fe  Fe926  1  0.46810300  0.03405140  0.34264900  1
  Fe  Fe927  1  0.46810300  0.03405140  0.54264900  1
  Fe  Fe928  1  0.46810300  0.03405140  0.74264900  1
  Fe  Fe929  1  0.46810300  0.03405140  0.94264900  1
  Fe  Fe930  1  0.46810300  0.23405140  0.14264900  1
  Fe  Fe931  1  0.46810300  0.23405140  0.34264900  1
  Fe  Fe932  1  0.46810300  0.23405140  0.54264900  1
  Fe  Fe933  1  0.46810300  0.23405140  0.74264900  1
  Fe  Fe934  1  0.46810300  0.23405140  0.94264900  1
  Fe  Fe935  1  0.46810300  0.43405140  0.14264900  1
  Fe  Fe936  1  0.46810300  0.43405140  0.34264900  1
  Fe  Fe937  1  0.46810300  0.43405140  0.54264900  1
  Fe  Fe938  1  0.46810300  0.43405140  0.74264900  1
  Fe  Fe939  1  0.46810300  0.43405140  0.94264900  1
  Fe  Fe940  1  0.46810300  0.63405140  0.14264900  1
  Fe  Fe941  1  0.46810300  0.63405140  0.34264900  1
  Fe  Fe942  1  0.46810300  0.63405140  0.54264900  1
  Fe  Fe943  1  0.46810300  0.63405140  0.74264900  1
  Fe  Fe944  1  0.46810300  0.63405140  0.94264900  1
  Fe  Fe945  1  0.46810300  0.83405140  0.14264900  1
  Fe  Fe946  1  0.46810300  0.83405140  0.34264900  1
  Fe  Fe947  1  0.46810300  0.83405140  0.54264900  1
  Fe  Fe948  1  0.46810300  0.83405140  0.74264900  1
  Fe  Fe949  1  0.46810300  0.83405140  0.94264900  1
  Fe  Fe950  1  0.66810300  0.03405140  0.14264900  1
  Fe  Fe951  1  0.66810300  0.03405140  0.34264900  1
  Fe  Fe952  1  0.66810300  0.03405140  0.54264900  1
  Fe  Fe953  1  0.66810300  0.03405140  0.74264900  1
  Fe  Fe954  1  0.66810300  0.03405140  0.94264900  1
  Fe  Fe955  1  0.66810300  0.23405140  0.14264900  1
  Fe  Fe956  1  0.66810300  0.23405140  0.34264900  1
  Fe  Fe957  1  0.66810300  0.23405140  0.54264900  1
  Fe  Fe958  1  0.66810300  0.23405140  0.74264900  1
  Fe  Fe959  1  0.66810300  0.23405140  0.94264900  1
  Fe  Fe960  1  0.66810300  0.43405140  0.14264900  1
  Fe  Fe961  1  0.66810300  0.43405140  0.34264900  1
  Fe  Fe962  1  0.66810300  0.43405140  0.54264900  1
  Fe  Fe963  1  0.66810300  0.43405140  0.74264900  1
  Fe  Fe964  1  0.66810300  0.43405140  0.94264900  1
  Fe  Fe965  1  0.66810300  0.63405140  0.14264900  1
  Fe  Fe966  1  0.66810300  0.63405140  0.34264900  1
  Fe  Fe967  1  0.66810300  0.63405140  0.54264900  1
  Fe  Fe968  1  0.66810300  0.63405140  0.74264900  1
  Fe  Fe969  1  0.66810300  0.63405140  0.94264900  1
  Fe  Fe970  1  0.66810300  0.83405140  0.14264900  1
  Fe  Fe971  1  0.66810300  0.83405140  0.34264900  1
  Fe  Fe972  1  0.66810300  0.83405140  0.54264900  1
  Fe  Fe973  1  0.66810300  0.83405140  0.74264900  1
  Fe  Fe974  1  0.66810300  0.83405140  0.94264900  1
  Fe  Fe975  1  0.86810300  0.03405140  0.14264900  1
  Fe  Fe976  1  0.86810300  0.03405140  0.34264900  1
  Fe  Fe977  1  0.86810300  0.03405140  0.54264900  1
  Fe  Fe978  1  0.86810300  0.03405140  0.74264900  1
  Fe  Fe979  1  0.86810300  0.03405140  0.94264900  1
  Fe  Fe980  1  0.86810300  0.23405140  0.14264900  1
  Fe  Fe981  1  0.86810300  0.23405140  0.34264900  1
  Fe  Fe982  1  0.86810300  0.23405140  0.54264900  1
  Fe  Fe983  1  0.86810300  0.23405140  0.74264900  1
  Fe  Fe984  1  0.86810300  0.23405140  0.94264900  1
  Fe  Fe985  1  0.86810300  0.43405140  0.14264900  1
  Fe  Fe986  1  0.86810300  0.43405140  0.34264900  1
  Fe  Fe987  1  0.86810300  0.43405140  0.54264900  1
  Fe  Fe988  1  0.86810300  0.43405140  0.74264900  1
  Fe  Fe989  1  0.86810300  0.43405140  0.94264900  1
  Fe  Fe990  1  0.86810300  0.63405140  0.14264900  1
  Fe  Fe991  1  0.86810300  0.63405140  0.34264900  1
  Fe  Fe992  1  0.86810300  0.63405140  0.54264900  1
  Fe  Fe993  1  0.86810300  0.63405140  0.74264900  1
  Fe  Fe994  1  0.86810300  0.63405140  0.94264900  1
  Fe  Fe995  1  0.86810300  0.83405140  0.14264900  1
  Fe  Fe996  1  0.86810300  0.83405140  0.34264900  1
  Fe  Fe997  1  0.86810300  0.83405140  0.54264900  1
  Fe  Fe998  1  0.86810300  0.83405140  0.74264900  1
  Fe  Fe999  1  0.86810300  0.83405140  0.94264900  1
  Fe  Fe1000  1  0.16594860  0.13189700  0.14264900  1
  Fe  Fe1001  1  0.16594860  0.13189700  0.34264900  1
  Fe  Fe1002  1  0.16594860  0.13189700  0.54264900  1
  Fe  Fe1003  1  0.16594860  0.13189700  0.74264900  1
  Fe  Fe1004  1  0.16594860  0.13189700  0.94264900  1
  Fe  Fe1005  1  0.16594860  0.33189700  0.14264900  1
  Fe  Fe1006  1  0.16594860  0.33189700  0.34264900  1
  Fe  Fe1007  1  0.16594860  0.33189700  0.54264900  1
  Fe  Fe1008  1  0.16594860  0.33189700  0.74264900  1
  Fe  Fe1009  1  0.16594860  0.33189700  0.94264900  1
  Fe  Fe1010  1  0.16594860  0.53189700  0.14264900  1
  Fe  Fe1011  1  0.16594860  0.53189700  0.34264900  1
  Fe  Fe1012  1  0.16594860  0.53189700  0.54264900  1
  Fe  Fe1013  1  0.16594860  0.53189700  0.74264900  1
  Fe  Fe1014  1  0.16594860  0.53189700  0.94264900  1
  Fe  Fe1015  1  0.16594860  0.73189700  0.14264900  1
  Fe  Fe1016  1  0.16594860  0.73189700  0.34264900  1
  Fe  Fe1017  1  0.16594860  0.73189700  0.54264900  1
  Fe  Fe1018  1  0.16594860  0.73189700  0.74264900  1
  Fe  Fe1019  1  0.16594860  0.73189700  0.94264900  1
  Fe  Fe1020  1  0.16594860  0.93189700  0.14264900  1
  Fe  Fe1021  1  0.16594860  0.93189700  0.34264900  1
  Fe  Fe1022  1  0.16594860  0.93189700  0.54264900  1
  Fe  Fe1023  1  0.16594860  0.93189700  0.74264900  1
  Fe  Fe1024  1  0.16594860  0.93189700  0.94264900  1
  Fe  Fe1025  1  0.36594860  0.13189700  0.14264900  1
  Fe  Fe1026  1  0.36594860  0.13189700  0.34264900  1
  Fe  Fe1027  1  0.36594860  0.13189700  0.54264900  1
  Fe  Fe1028  1  0.36594860  0.13189700  0.74264900  1
  Fe  Fe1029  1  0.36594860  0.13189700  0.94264900  1
  Fe  Fe1030  1  0.36594860  0.33189700  0.14264900  1
  Fe  Fe1031  1  0.36594860  0.33189700  0.34264900  1
  Fe  Fe1032  1  0.36594860  0.33189700  0.54264900  1
  Fe  Fe1033  1  0.36594860  0.33189700  0.74264900  1
  Fe  Fe1034  1  0.36594860  0.33189700  0.94264900  1
  Fe  Fe1035  1  0.36594860  0.53189700  0.14264900  1
  Fe  Fe1036  1  0.36594860  0.53189700  0.34264900  1
  Fe  Fe1037  1  0.36594860  0.53189700  0.54264900  1
  Fe  Fe1038  1  0.36594860  0.53189700  0.74264900  1
  Fe  Fe1039  1  0.36594860  0.53189700  0.94264900  1
  Fe  Fe1040  1  0.36594860  0.73189700  0.14264900  1
  Fe  Fe1041  1  0.36594860  0.73189700  0.34264900  1
  Fe  Fe1042  1  0.36594860  0.73189700  0.54264900  1
  Fe  Fe1043  1  0.36594860  0.73189700  0.74264900  1
  Fe  Fe1044  1  0.36594860  0.73189700  0.94264900  1
  Fe  Fe1045  1  0.36594860  0.93189700  0.14264900  1
  Fe  Fe1046  1  0.36594860  0.93189700  0.34264900  1
  Fe  Fe1047  1  0.36594860  0.93189700  0.54264900  1
  Fe  Fe1048  1  0.36594860  0.93189700  0.74264900  1
  Fe  Fe1049  1  0.36594860  0.93189700  0.94264900  1
  Fe  Fe1050  1  0.56594860  0.13189700  0.14264900  1
  Fe  Fe1051  1  0.56594860  0.13189700  0.34264900  1
  Fe  Fe1052  1  0.56594860  0.13189700  0.54264900  1
  Fe  Fe1053  1  0.56594860  0.13189700  0.74264900  1
  Fe  Fe1054  1  0.56594860  0.13189700  0.94264900  1
  Fe  Fe1055  1  0.56594860  0.33189700  0.14264900  1
  Fe  Fe1056  1  0.56594860  0.33189700  0.34264900  1
  Fe  Fe1057  1  0.56594860  0.33189700  0.54264900  1
  Fe  Fe1058  1  0.56594860  0.33189700  0.74264900  1
  Fe  Fe1059  1  0.56594860  0.33189700  0.94264900  1
  Fe  Fe1060  1  0.56594860  0.53189700  0.14264900  1
  Fe  Fe1061  1  0.56594860  0.53189700  0.34264900  1
  Fe  Fe1062  1  0.56594860  0.53189700  0.54264900  1
  Fe  Fe1063  1  0.56594860  0.53189700  0.74264900  1
  Fe  Fe1064  1  0.56594860  0.53189700  0.94264900  1
  Fe  Fe1065  1  0.56594860  0.73189700  0.14264900  1
  Fe  Fe1066  1  0.56594860  0.73189700  0.34264900  1
  Fe  Fe1067  1  0.56594860  0.73189700  0.54264900  1
  Fe  Fe1068  1  0.56594860  0.73189700  0.74264900  1
  Fe  Fe1069  1  0.56594860  0.73189700  0.94264900  1
  Fe  Fe1070  1  0.56594860  0.93189700  0.14264900  1
  Fe  Fe1071  1  0.56594860  0.93189700  0.34264900  1
  Fe  Fe1072  1  0.56594860  0.93189700  0.54264900  1
  Fe  Fe1073  1  0.56594860  0.93189700  0.74264900  1
  Fe  Fe1074  1  0.56594860  0.93189700  0.94264900  1
  Fe  Fe1075  1  0.76594860  0.13189700  0.14264900  1
  Fe  Fe1076  1  0.76594860  0.13189700  0.34264900  1
  Fe  Fe1077  1  0.76594860  0.13189700  0.54264900  1
  Fe  Fe1078  1  0.76594860  0.13189700  0.74264900  1
  Fe  Fe1079  1  0.76594860  0.13189700  0.94264900  1
  Fe  Fe1080  1  0.76594860  0.33189700  0.14264900  1
  Fe  Fe1081  1  0.76594860  0.33189700  0.34264900  1
  Fe  Fe1082  1  0.76594860  0.33189700  0.54264900  1
  Fe  Fe1083  1  0.76594860  0.33189700  0.74264900  1
  Fe  Fe1084  1  0.76594860  0.33189700  0.94264900  1
  Fe  Fe1085  1  0.76594860  0.53189700  0.14264900  1
  Fe  Fe1086  1  0.76594860  0.53189700  0.34264900  1
  Fe  Fe1087  1  0.76594860  0.53189700  0.54264900  1
  Fe  Fe1088  1  0.76594860  0.53189700  0.74264900  1
  Fe  Fe1089  1  0.76594860  0.53189700  0.94264900  1
  Fe  Fe1090  1  0.76594860  0.73189700  0.14264900  1
  Fe  Fe1091  1  0.76594860  0.73189700  0.34264900  1
  Fe  Fe1092  1  0.76594860  0.73189700  0.54264900  1
  Fe  Fe1093  1  0.76594860  0.73189700  0.74264900  1
  Fe  Fe1094  1  0.76594860  0.73189700  0.94264900  1
  Fe  Fe1095  1  0.76594860  0.93189700  0.14264900  1
  Fe  Fe1096  1  0.76594860  0.93189700  0.34264900  1
  Fe  Fe1097  1  0.76594860  0.93189700  0.54264900  1
  Fe  Fe1098  1  0.76594860  0.93189700  0.74264900  1
  Fe  Fe1099  1  0.76594860  0.93189700  0.94264900  1
  Fe  Fe1100  1  0.96594860  0.13189700  0.14264900  1
  Fe  Fe1101  1  0.96594860  0.13189700  0.34264900  1
  Fe  Fe1102  1  0.96594860  0.13189700  0.54264900  1
  Fe  Fe1103  1  0.96594860  0.13189700  0.74264900  1
  Fe  Fe1104  1  0.96594860  0.13189700  0.94264900  1
  Fe  Fe1105  1  0.96594860  0.33189700  0.14264900  1
  Fe  Fe1106  1  0.96594860  0.33189700  0.34264900  1
  Fe  Fe1107  1  0.96594860  0.33189700  0.54264900  1
  Fe  Fe1108  1  0.96594860  0.33189700  0.74264900  1
  Fe  Fe1109  1  0.96594860  0.33189700  0.94264900  1
  Fe  Fe1110  1  0.96594860  0.53189700  0.14264900  1
  Fe  Fe1111  1  0.96594860  0.53189700  0.34264900  1
  Fe  Fe1112  1  0.96594860  0.53189700  0.54264900  1
  Fe  Fe1113  1  0.96594860  0.53189700  0.74264900  1
  Fe  Fe1114  1  0.96594860  0.53189700  0.94264900  1
  Fe  Fe1115  1  0.96594860  0.73189700  0.14264900  1
  Fe  Fe1116  1  0.96594860  0.73189700  0.34264900  1
  Fe  Fe1117  1  0.96594860  0.73189700  0.54264900  1
  Fe  Fe1118  1  0.96594860  0.73189700  0.74264900  1
  Fe  Fe1119  1  0.96594860  0.73189700  0.94264900  1
  Fe  Fe1120  1  0.96594860  0.93189700  0.14264900  1
  Fe  Fe1121  1  0.96594860  0.93189700  0.34264900  1
  Fe  Fe1122  1  0.96594860  0.93189700  0.54264900  1
  Fe  Fe1123  1  0.96594860  0.93189700  0.74264900  1
  Fe  Fe1124  1  0.96594860  0.93189700  0.94264900  1
  Fe  Fe1125  1  0.16594860  0.03405140  0.14264900  1
  Fe  Fe1126  1  0.16594860  0.03405140  0.34264900  1
  Fe  Fe1127  1  0.16594860  0.03405140  0.54264900  1
  Fe  Fe1128  1  0.16594860  0.03405140  0.74264900  1
  Fe  Fe1129  1  0.16594860  0.03405140  0.94264900  1
  Fe  Fe1130  1  0.16594860  0.23405140  0.14264900  1
  Fe  Fe1131  1  0.16594860  0.23405140  0.34264900  1
  Fe  Fe1132  1  0.16594860  0.23405140  0.54264900  1
  Fe  Fe1133  1  0.16594860  0.23405140  0.74264900  1
  Fe  Fe1134  1  0.16594860  0.23405140  0.94264900  1
  Fe  Fe1135  1  0.16594860  0.43405140  0.14264900  1
  Fe  Fe1136  1  0.16594860  0.43405140  0.34264900  1
  Fe  Fe1137  1  0.16594860  0.43405140  0.54264900  1
  Fe  Fe1138  1  0.16594860  0.43405140  0.74264900  1
  Fe  Fe1139  1  0.16594860  0.43405140  0.94264900  1
  Fe  Fe1140  1  0.16594860  0.63405140  0.14264900  1
  Fe  Fe1141  1  0.16594860  0.63405140  0.34264900  1
  Fe  Fe1142  1  0.16594860  0.63405140  0.54264900  1
  Fe  Fe1143  1  0.16594860  0.63405140  0.74264900  1
  Fe  Fe1144  1  0.16594860  0.63405140  0.94264900  1
  Fe  Fe1145  1  0.16594860  0.83405140  0.14264900  1
  Fe  Fe1146  1  0.16594860  0.83405140  0.34264900  1
  Fe  Fe1147  1  0.16594860  0.83405140  0.54264900  1
  Fe  Fe1148  1  0.16594860  0.83405140  0.74264900  1
  Fe  Fe1149  1  0.16594860  0.83405140  0.94264900  1
  Fe  Fe1150  1  0.36594860  0.03405140  0.14264900  1
  Fe  Fe1151  1  0.36594860  0.03405140  0.34264900  1
  Fe  Fe1152  1  0.36594860  0.03405140  0.54264900  1
  Fe  Fe1153  1  0.36594860  0.03405140  0.74264900  1
  Fe  Fe1154  1  0.36594860  0.03405140  0.94264900  1
  Fe  Fe1155  1  0.36594860  0.23405140  0.14264900  1
  Fe  Fe1156  1  0.36594860  0.23405140  0.34264900  1
  Fe  Fe1157  1  0.36594860  0.23405140  0.54264900  1
  Fe  Fe1158  1  0.36594860  0.23405140  0.74264900  1
  Fe  Fe1159  1  0.36594860  0.23405140  0.94264900  1
  Fe  Fe1160  1  0.36594860  0.43405140  0.14264900  1
  Fe  Fe1161  1  0.36594860  0.43405140  0.34264900  1
  Fe  Fe1162  1  0.36594860  0.43405140  0.54264900  1
  Fe  Fe1163  1  0.36594860  0.43405140  0.74264900  1
  Fe  Fe1164  1  0.36594860  0.43405140  0.94264900  1
  Fe  Fe1165  1  0.36594860  0.63405140  0.14264900  1
  Fe  Fe1166  1  0.36594860  0.63405140  0.34264900  1
  Fe  Fe1167  1  0.36594860  0.63405140  0.54264900  1
  Fe  Fe1168  1  0.36594860  0.63405140  0.74264900  1
  Fe  Fe1169  1  0.36594860  0.63405140  0.94264900  1
  Fe  Fe1170  1  0.36594860  0.83405140  0.14264900  1
  Fe  Fe1171  1  0.36594860  0.83405140  0.34264900  1
  Fe  Fe1172  1  0.36594860  0.83405140  0.54264900  1
  Fe  Fe1173  1  0.36594860  0.83405140  0.74264900  1
  Fe  Fe1174  1  0.36594860  0.83405140  0.94264900  1
  Fe  Fe1175  1  0.56594860  0.03405140  0.14264900  1
  Fe  Fe1176  1  0.56594860  0.03405140  0.34264900  1
  Fe  Fe1177  1  0.56594860  0.03405140  0.54264900  1
  Fe  Fe1178  1  0.56594860  0.03405140  0.74264900  1
  Fe  Fe1179  1  0.56594860  0.03405140  0.94264900  1
  Fe  Fe1180  1  0.56594860  0.23405140  0.14264900  1
  Fe  Fe1181  1  0.56594860  0.23405140  0.34264900  1
  Fe  Fe1182  1  0.56594860  0.23405140  0.54264900  1
  Fe  Fe1183  1  0.56594860  0.23405140  0.74264900  1
  Fe  Fe1184  1  0.56594860  0.23405140  0.94264900  1
  Fe  Fe1185  1  0.56594860  0.43405140  0.14264900  1
  Fe  Fe1186  1  0.56594860  0.43405140  0.34264900  1
  Fe  Fe1187  1  0.56594860  0.43405140  0.54264900  1
  Fe  Fe1188  1  0.56594860  0.43405140  0.74264900  1
  Fe  Fe1189  1  0.56594860  0.43405140  0.94264900  1
  Fe  Fe1190  1  0.56594860  0.63405140  0.14264900  1
  Fe  Fe1191  1  0.56594860  0.63405140  0.34264900  1
  Fe  Fe1192  1  0.56594860  0.63405140  0.54264900  1
  Fe  Fe1193  1  0.56594860  0.63405140  0.74264900  1
  Fe  Fe1194  1  0.56594860  0.63405140  0.94264900  1
  Fe  Fe1195  1  0.56594860  0.83405140  0.14264900  1
  Fe  Fe1196  1  0.56594860  0.83405140  0.34264900  1
  Fe  Fe1197  1  0.56594860  0.83405140  0.54264900  1
  Fe  Fe1198  1  0.56594860  0.83405140  0.74264900  1
  Fe  Fe1199  1  0.56594860  0.83405140  0.94264900  1
  Fe  Fe1200  1  0.76594860  0.03405140  0.14264900  1
  Fe  Fe1201  1  0.76594860  0.03405140  0.34264900  1
  Fe  Fe1202  1  0.76594860  0.03405140  0.54264900  1
  Fe  Fe1203  1  0.76594860  0.03405140  0.74264900  1
  Fe  Fe1204  1  0.76594860  0.03405140  0.94264900  1
  Fe  Fe1205  1  0.76594860  0.23405140  0.14264900  1
  Fe  Fe1206  1  0.76594860  0.23405140  0.34264900  1
  Fe  Fe1207  1  0.76594860  0.23405140  0.54264900  1
  Fe  Fe1208  1  0.76594860  0.23405140  0.74264900  1
  Fe  Fe1209  1  0.76594860  0.23405140  0.94264900  1
  Fe  Fe1210  1  0.76594860  0.43405140  0.14264900  1
  Fe  Fe1211  1  0.76594860  0.43405140  0.34264900  1
  Fe  Fe1212  1  0.76594860  0.43405140  0.54264900  1
  Fe  Fe1213  1  0.76594860  0.43405140  0.74264900  1
  Fe  Fe1214  1  0.76594860  0.43405140  0.94264900  1
  Fe  Fe1215  1  0.76594860  0.63405140  0.14264900  1
  Fe  Fe1216  1  0.76594860  0.63405140  0.34264900  1
  Fe  Fe1217  1  0.76594860  0.63405140  0.54264900  1
  Fe  Fe1218  1  0.76594860  0.63405140  0.74264900  1
  Fe  Fe1219  1  0.76594860  0.63405140  0.94264900  1
  Fe  Fe1220  1  0.76594860  0.83405140  0.14264900  1
  Fe  Fe1221  1  0.76594860  0.83405140  0.34264900  1
  Fe  Fe1222  1  0.76594860  0.83405140  0.54264900  1
  Fe  Fe1223  1  0.76594860  0.83405140  0.74264900  1
  Fe  Fe1224  1  0.76594860  0.83405140  0.94264900  1
  Fe  Fe1225  1  0.96594860  0.03405140  0.14264900  1
  Fe  Fe1226  1  0.96594860  0.03405140  0.34264900  1
  Fe  Fe1227  1  0.96594860  0.03405140  0.54264900  1
  Fe  Fe1228  1  0.96594860  0.03405140  0.74264900  1
  Fe  Fe1229  1  0.96594860  0.03405140  0.94264900  1
  Fe  Fe1230  1  0.96594860  0.23405140  0.14264900  1
  Fe  Fe1231  1  0.96594860  0.23405140  0.34264900  1
  Fe  Fe1232  1  0.96594860  0.23405140  0.54264900  1
  Fe  Fe1233  1  0.96594860  0.23405140  0.74264900  1
  Fe  Fe1234  1  0.96594860  0.23405140  0.94264900  1
  Fe  Fe1235  1  0.96594860  0.43405140  0.14264900  1
  Fe  Fe1236  1  0.96594860  0.43405140  0.34264900  1
  Fe  Fe1237  1  0.96594860  0.43405140  0.54264900  1
  Fe  Fe1238  1  0.96594860  0.43405140  0.74264900  1
  Fe  Fe1239  1  0.96594860  0.43405140  0.94264900  1
  Fe  Fe1240  1  0.96594860  0.63405140  0.14264900  1
  Fe  Fe1241  1  0.96594860  0.63405140  0.34264900  1
  Fe  Fe1242  1  0.96594860  0.63405140  0.54264900  1
  Fe  Fe1243  1  0.96594860  0.63405140  0.74264900  1
  Fe  Fe1244  1  0.96594860  0.63405140  0.94264900  1
  Fe  Fe1245  1  0.96594860  0.83405140  0.14264900  1
  Fe  Fe1246  1  0.96594860  0.83405140  0.34264900  1
  Fe  Fe1247  1  0.96594860  0.83405140  0.54264900  1
  Fe  Fe1248  1  0.96594860  0.83405140  0.74264900  1
  Fe  Fe1249  1  0.96594860  0.83405140  0.94264900  1
  Sb  Sb1250  1  0.06666660  0.13333340  0.09724820  1
  Sb  Sb1251  1  0.06666660  0.13333340  0.29724820  1
  Sb  Sb1252  1  0.06666660  0.13333340  0.49724820  1
  Sb  Sb1253  1  0.06666660  0.13333340  0.69724820  1
  Sb  Sb1254  1  0.06666660  0.13333340  0.89724820  1
  Sb  Sb1255  1  0.06666660  0.33333340  0.09724820  1
  Sb  Sb1256  1  0.06666660  0.33333340  0.29724820  1
  Sb  Sb1257  1  0.06666660  0.33333340  0.49724820  1
  Sb  Sb1258  1  0.06666660  0.33333340  0.69724820  1
  Sb  Sb1259  1  0.06666660  0.33333340  0.89724820  1
  Sb  Sb1260  1  0.06666660  0.53333340  0.09724820  1
  Sb  Sb1261  1  0.06666660  0.53333340  0.29724820  1
  Sb  Sb1262  1  0.06666660  0.53333340  0.49724820  1
  Sb  Sb1263  1  0.06666660  0.53333340  0.69724820  1
  Sb  Sb1264  1  0.06666660  0.53333340  0.89724820  1
  Sb  Sb1265  1  0.06666660  0.73333340  0.09724820  1
  Sb  Sb1266  1  0.06666660  0.73333340  0.29724820  1
  Sb  Sb1267  1  0.06666660  0.73333340  0.49724820  1
  Sb  Sb1268  1  0.06666660  0.73333340  0.69724820  1
  Sb  Sb1269  1  0.06666660  0.73333340  0.89724820  1
  Sb  Sb1270  1  0.06666660  0.93333340  0.09724820  1
  Sb  Sb1271  1  0.06666660  0.93333340  0.29724820  1
  Sb  Sb1272  1  0.06666660  0.93333340  0.49724820  1
  Sb  Sb1273  1  0.06666660  0.93333340  0.69724820  1
  Sb  Sb1274  1  0.06666660  0.93333340  0.89724820  1
  Sb  Sb1275  1  0.26666660  0.13333340  0.09724820  1
  Sb  Sb1276  1  0.26666660  0.13333340  0.29724820  1
  Sb  Sb1277  1  0.26666660  0.13333340  0.49724820  1
  Sb  Sb1278  1  0.26666660  0.13333340  0.69724820  1
  Sb  Sb1279  1  0.26666660  0.13333340  0.89724820  1
  Sb  Sb1280  1  0.26666660  0.33333340  0.09724820  1
  Sb  Sb1281  1  0.26666660  0.33333340  0.29724820  1
  Sb  Sb1282  1  0.26666660  0.33333340  0.49724820  1
  Sb  Sb1283  1  0.26666660  0.33333340  0.69724820  1
  Sb  Sb1284  1  0.26666660  0.33333340  0.89724820  1
  Sb  Sb1285  1  0.26666660  0.53333340  0.09724820  1
  Sb  Sb1286  1  0.26666660  0.53333340  0.29724820  1
  Sb  Sb1287  1  0.26666660  0.53333340  0.49724820  1
  Sb  Sb1288  1  0.26666660  0.53333340  0.69724820  1
  Sb  Sb1289  1  0.26666660  0.53333340  0.89724820  1
  Sb  Sb1290  1  0.26666660  0.73333340  0.09724820  1
  Sb  Sb1291  1  0.26666660  0.73333340  0.29724820  1
  Sb  Sb1292  1  0.26666660  0.73333340  0.49724820  1
  Sb  Sb1293  1  0.26666660  0.73333340  0.69724820  1
  Sb  Sb1294  1  0.26666660  0.73333340  0.89724820  1
  Sb  Sb1295  1  0.26666660  0.93333340  0.09724820  1
  Sb  Sb1296  1  0.26666660  0.93333340  0.29724820  1
  Sb  Sb1297  1  0.26666660  0.93333340  0.49724820  1
  Sb  Sb1298  1  0.26666660  0.93333340  0.69724820  1
  Sb  Sb1299  1  0.26666660  0.93333340  0.89724820  1
  Sb  Sb1300  1  0.46666660  0.13333340  0.09724820  1
  Sb  Sb1301  1  0.46666660  0.13333340  0.29724820  1
  Sb  Sb1302  1  0.46666660  0.13333340  0.49724820  1
  Sb  Sb1303  1  0.46666660  0.13333340  0.69724820  1
  Sb  Sb1304  1  0.46666660  0.13333340  0.89724820  1
  Sb  Sb1305  1  0.46666660  0.33333340  0.09724820  1
  Sb  Sb1306  1  0.46666660  0.33333340  0.29724820  1
  Sb  Sb1307  1  0.46666660  0.33333340  0.49724820  1
  Sb  Sb1308  1  0.46666660  0.33333340  0.69724820  1
  Sb  Sb1309  1  0.46666660  0.33333340  0.89724820  1
  Sb  Sb1310  1  0.46666660  0.53333340  0.09724820  1
  Sb  Sb1311  1  0.46666660  0.53333340  0.29724820  1
  Sb  Sb1312  1  0.46666660  0.53333340  0.49724820  1
  Sb  Sb1313  1  0.46666660  0.53333340  0.69724820  1
  Sb  Sb1314  1  0.46666660  0.53333340  0.89724820  1
  Sb  Sb1315  1  0.46666660  0.73333340  0.09724820  1
  Sb  Sb1316  1  0.46666660  0.73333340  0.29724820  1
  Sb  Sb1317  1  0.46666660  0.73333340  0.49724820  1
  Sb  Sb1318  1  0.46666660  0.73333340  0.69724820  1
  Sb  Sb1319  1  0.46666660  0.73333340  0.89724820  1
  Sb  Sb1320  1  0.46666660  0.93333340  0.09724820  1
  Sb  Sb1321  1  0.46666660  0.93333340  0.29724820  1
  Sb  Sb1322  1  0.46666660  0.93333340  0.49724820  1
  Sb  Sb1323  1  0.46666660  0.93333340  0.69724820  1
  Sb  Sb1324  1  0.46666660  0.93333340  0.89724820  1
  Sb  Sb1325  1  0.66666660  0.13333340  0.09724820  1
  Sb  Sb1326  1  0.66666660  0.13333340  0.29724820  1
  Sb  Sb1327  1  0.66666660  0.13333340  0.49724820  1
  Sb  Sb1328  1  0.66666660  0.13333340  0.69724820  1
  Sb  Sb1329  1  0.66666660  0.13333340  0.89724820  1
  Sb  Sb1330  1  0.66666660  0.33333340  0.09724820  1
  Sb  Sb1331  1  0.66666660  0.33333340  0.29724820  1
  Sb  Sb1332  1  0.66666660  0.33333340  0.49724820  1
  Sb  Sb1333  1  0.66666660  0.33333340  0.69724820  1
  Sb  Sb1334  1  0.66666660  0.33333340  0.89724820  1
  Sb  Sb1335  1  0.66666660  0.53333340  0.09724820  1
  Sb  Sb1336  1  0.66666660  0.53333340  0.29724820  1
  Sb  Sb1337  1  0.66666660  0.53333340  0.49724820  1
  Sb  Sb1338  1  0.66666660  0.53333340  0.69724820  1
  Sb  Sb1339  1  0.66666660  0.53333340  0.89724820  1
  Sb  Sb1340  1  0.66666660  0.73333340  0.09724820  1
  Sb  Sb1341  1  0.66666660  0.73333340  0.29724820  1
  Sb  Sb1342  1  0.66666660  0.73333340  0.49724820  1
  Sb  Sb1343  1  0.66666660  0.73333340  0.69724820  1
  Sb  Sb1344  1  0.66666660  0.73333340  0.89724820  1
  Sb  Sb1345  1  0.66666660  0.93333340  0.09724820  1
  Sb  Sb1346  1  0.66666660  0.93333340  0.29724820  1
  Sb  Sb1347  1  0.66666660  0.93333340  0.49724820  1
  Sb  Sb1348  1  0.66666660  0.93333340  0.69724820  1
  Sb  Sb1349  1  0.66666660  0.93333340  0.89724820  1
  Sb  Sb1350  1  0.86666660  0.13333340  0.09724820  1
  Sb  Sb1351  1  0.86666660  0.13333340  0.29724820  1
  Sb  Sb1352  1  0.86666660  0.13333340  0.49724820  1
  Sb  Sb1353  1  0.86666660  0.13333340  0.69724820  1
  Sb  Sb1354  1  0.86666660  0.13333340  0.89724820  1
  Sb  Sb1355  1  0.86666660  0.33333340  0.09724820  1
  Sb  Sb1356  1  0.86666660  0.33333340  0.29724820  1
  Sb  Sb1357  1  0.86666660  0.33333340  0.49724820  1
  Sb  Sb1358  1  0.86666660  0.33333340  0.69724820  1
  Sb  Sb1359  1  0.86666660  0.33333340  0.89724820  1
  Sb  Sb1360  1  0.86666660  0.53333340  0.09724820  1
  Sb  Sb1361  1  0.86666660  0.53333340  0.29724820  1
  Sb  Sb1362  1  0.86666660  0.53333340  0.49724820  1
  Sb  Sb1363  1  0.86666660  0.53333340  0.69724820  1
  Sb  Sb1364  1  0.86666660  0.53333340  0.89724820  1
  Sb  Sb1365  1  0.86666660  0.73333340  0.09724820  1
  Sb  Sb1366  1  0.86666660  0.73333340  0.29724820  1
  Sb  Sb1367  1  0.86666660  0.73333340  0.49724820  1
  Sb  Sb1368  1  0.86666660  0.73333340  0.69724820  1
  Sb  Sb1369  1  0.86666660  0.73333340  0.89724820  1
  Sb  Sb1370  1  0.86666660  0.93333340  0.09724820  1
  Sb  Sb1371  1  0.86666660  0.93333340  0.29724820  1
  Sb  Sb1372  1  0.86666660  0.93333340  0.49724820  1
  Sb  Sb1373  1  0.86666660  0.93333340  0.69724820  1
  Sb  Sb1374  1  0.86666660  0.93333340  0.89724820  1
  Sb  Sb1375  1  0.13333340  0.06666660  0.19724820  1
  Sb  Sb1376  1  0.13333340  0.06666660  0.39724820  1
  Sb  Sb1377  1  0.13333340  0.06666660  0.59724820  1
  Sb  Sb1378  1  0.13333340  0.06666660  0.79724820  1
  Sb  Sb1379  1  0.13333340  0.06666660  0.99724820  1
  Sb  Sb1380  1  0.13333340  0.26666660  0.19724820  1
  Sb  Sb1381  1  0.13333340  0.26666660  0.39724820  1
  Sb  Sb1382  1  0.13333340  0.26666660  0.59724820  1
  Sb  Sb1383  1  0.13333340  0.26666660  0.79724820  1
  Sb  Sb1384  1  0.13333340  0.26666660  0.99724820  1
  Sb  Sb1385  1  0.13333340  0.46666660  0.19724820  1
  Sb  Sb1386  1  0.13333340  0.46666660  0.39724820  1
  Sb  Sb1387  1  0.13333340  0.46666660  0.59724820  1
  Sb  Sb1388  1  0.13333340  0.46666660  0.79724820  1
  Sb  Sb1389  1  0.13333340  0.46666660  0.99724820  1
  Sb  Sb1390  1  0.13333340  0.66666660  0.19724820  1
  Sb  Sb1391  1  0.13333340  0.66666660  0.39724820  1
  Sb  Sb1392  1  0.13333340  0.66666660  0.59724820  1
  Sb  Sb1393  1  0.13333340  0.66666660  0.79724820  1
  Sb  Sb1394  1  0.13333340  0.66666660  0.99724820  1
  Sb  Sb1395  1  0.13333340  0.86666660  0.19724820  1
  Sb  Sb1396  1  0.13333340  0.86666660  0.39724820  1
  Sb  Sb1397  1  0.13333340  0.86666660  0.59724820  1
  Sb  Sb1398  1  0.13333340  0.86666660  0.79724820  1
  Sb  Sb1399  1  0.13333340  0.86666660  0.99724820  1
  Sb  Sb1400  1  0.33333340  0.06666660  0.19724820  1
  Sb  Sb1401  1  0.33333340  0.06666660  0.39724820  1
  Sb  Sb1402  1  0.33333340  0.06666660  0.59724820  1
  Sb  Sb1403  1  0.33333340  0.06666660  0.79724820  1
  Sb  Sb1404  1  0.33333340  0.06666660  0.99724820  1
  Sb  Sb1405  1  0.33333340  0.26666660  0.19724820  1
  Sb  Sb1406  1  0.33333340  0.26666660  0.39724820  1
  Sb  Sb1407  1  0.33333340  0.26666660  0.59724820  1
  Sb  Sb1408  1  0.33333340  0.26666660  0.79724820  1
  Sb  Sb1409  1  0.33333340  0.26666660  0.99724820  1
  Sb  Sb1410  1  0.33333340  0.46666660  0.19724820  1
  Sb  Sb1411  1  0.33333340  0.46666660  0.39724820  1
  Sb  Sb1412  1  0.33333340  0.46666660  0.59724820  1
  Sb  Sb1413  1  0.33333340  0.46666660  0.79724820  1
  Sb  Sb1414  1  0.33333340  0.46666660  0.99724820  1
  Sb  Sb1415  1  0.33333340  0.66666660  0.19724820  1
  Sb  Sb1416  1  0.33333340  0.66666660  0.39724820  1
  Sb  Sb1417  1  0.33333340  0.66666660  0.59724820  1
  Sb  Sb1418  1  0.33333340  0.66666660  0.79724820  1
  Sb  Sb1419  1  0.33333340  0.66666660  0.99724820  1
  Sb  Sb1420  1  0.33333340  0.86666660  0.19724820  1
  Sb  Sb1421  1  0.33333340  0.86666660  0.39724820  1
  Sb  Sb1422  1  0.33333340  0.86666660  0.59724820  1
  Sb  Sb1423  1  0.33333340  0.86666660  0.79724820  1
  Sb  Sb1424  1  0.33333340  0.86666660  0.99724820  1
  Sb  Sb1425  1  0.53333340  0.06666660  0.19724820  1
  Sb  Sb1426  1  0.53333340  0.06666660  0.39724820  1
  Sb  Sb1427  1  0.53333340  0.06666660  0.59724820  1
  Sb  Sb1428  1  0.53333340  0.06666660  0.79724820  1
  Sb  Sb1429  1  0.53333340  0.06666660  0.99724820  1
  Sb  Sb1430  1  0.53333340  0.26666660  0.19724820  1
  Sb  Sb1431  1  0.53333340  0.26666660  0.39724820  1
  Sb  Sb1432  1  0.53333340  0.26666660  0.59724820  1
  Sb  Sb1433  1  0.53333340  0.26666660  0.79724820  1
  Sb  Sb1434  1  0.53333340  0.26666660  0.99724820  1
  Sb  Sb1435  1  0.53333340  0.46666660  0.19724820  1
  Sb  Sb1436  1  0.53333340  0.46666660  0.39724820  1
  Sb  Sb1437  1  0.53333340  0.46666660  0.59724820  1
  Sb  Sb1438  1  0.53333340  0.46666660  0.79724820  1
  Sb  Sb1439  1  0.53333340  0.46666660  0.99724820  1
  Sb  Sb1440  1  0.53333340  0.66666660  0.19724820  1
  Sb  Sb1441  1  0.53333340  0.66666660  0.39724820  1
  Sb  Sb1442  1  0.53333340  0.66666660  0.59724820  1
  Sb  Sb1443  1  0.53333340  0.66666660  0.79724820  1
  Sb  Sb1444  1  0.53333340  0.66666660  0.99724820  1
  Sb  Sb1445  1  0.53333340  0.86666660  0.19724820  1
  Sb  Sb1446  1  0.53333340  0.86666660  0.39724820  1
  Sb  Sb1447  1  0.53333340  0.86666660  0.59724820  1
  Sb  Sb1448  1  0.53333340  0.86666660  0.79724820  1
  Sb  Sb1449  1  0.53333340  0.86666660  0.99724820  1
  Sb  Sb1450  1  0.73333340  0.06666660  0.19724820  1
  Sb  Sb1451  1  0.73333340  0.06666660  0.39724820  1
  Sb  Sb1452  1  0.73333340  0.06666660  0.59724820  1
  Sb  Sb1453  1  0.73333340  0.06666660  0.79724820  1
  Sb  Sb1454  1  0.73333340  0.06666660  0.99724820  1
  Sb  Sb1455  1  0.73333340  0.26666660  0.19724820  1
  Sb  Sb1456  1  0.73333340  0.26666660  0.39724820  1
  Sb  Sb1457  1  0.73333340  0.26666660  0.59724820  1
  Sb  Sb1458  1  0.73333340  0.26666660  0.79724820  1
  Sb  Sb1459  1  0.73333340  0.26666660  0.99724820  1
  Sb  Sb1460  1  0.73333340  0.46666660  0.19724820  1
  Sb  Sb1461  1  0.73333340  0.46666660  0.39724820  1
  Sb  Sb1462  1  0.73333340  0.46666660  0.59724820  1
  Sb  Sb1463  1  0.73333340  0.46666660  0.79724820  1
  Sb  Sb1464  1  0.73333340  0.46666660  0.99724820  1
  Sb  Sb1465  1  0.73333340  0.66666660  0.19724820  1
  Sb  Sb1466  1  0.73333340  0.66666660  0.39724820  1
  Sb  Sb1467  1  0.73333340  0.66666660  0.59724820  1
  Sb  Sb1468  1  0.73333340  0.66666660  0.79724820  1
  Sb  Sb1469  1  0.73333340  0.66666660  0.99724820  1
  Sb  Sb1470  1  0.73333340  0.86666660  0.19724820  1
  Sb  Sb1471  1  0.73333340  0.86666660  0.39724820  1
  Sb  Sb1472  1  0.73333340  0.86666660  0.59724820  1
  Sb  Sb1473  1  0.73333340  0.86666660  0.79724820  1
  Sb  Sb1474  1  0.73333340  0.86666660  0.99724820  1
  Sb  Sb1475  1  0.93333340  0.06666660  0.19724820  1
  Sb  Sb1476  1  0.93333340  0.06666660  0.39724820  1
  Sb  Sb1477  1  0.93333340  0.06666660  0.59724820  1
  Sb  Sb1478  1  0.93333340  0.06666660  0.79724820  1
  Sb  Sb1479  1  0.93333340  0.06666660  0.99724820  1
  Sb  Sb1480  1  0.93333340  0.26666660  0.19724820  1
  Sb  Sb1481  1  0.93333340  0.26666660  0.39724820  1
  Sb  Sb1482  1  0.93333340  0.26666660  0.59724820  1
  Sb  Sb1483  1  0.93333340  0.26666660  0.79724820  1
  Sb  Sb1484  1  0.93333340  0.26666660  0.99724820  1
  Sb  Sb1485  1  0.93333340  0.46666660  0.19724820  1
  Sb  Sb1486  1  0.93333340  0.46666660  0.39724820  1
  Sb  Sb1487  1  0.93333340  0.46666660  0.59724820  1
  Sb  Sb1488  1  0.93333340  0.46666660  0.79724820  1
  Sb  Sb1489  1  0.93333340  0.46666660  0.99724820  1
  Sb  Sb1490  1  0.93333340  0.66666660  0.19724820  1
  Sb  Sb1491  1  0.93333340  0.66666660  0.39724820  1
  Sb  Sb1492  1  0.93333340  0.66666660  0.59724820  1
  Sb  Sb1493  1  0.93333340  0.66666660  0.79724820  1
  Sb  Sb1494  1  0.93333340  0.66666660  0.99724820  1
  Sb  Sb1495  1  0.93333340  0.86666660  0.19724820  1
  Sb  Sb1496  1  0.93333340  0.86666660  0.39724820  1
  Sb  Sb1497  1  0.93333340  0.86666660  0.59724820  1
  Sb  Sb1498  1  0.93333340  0.86666660  0.79724820  1
  Sb  Sb1499  1  0.93333340  0.86666660  0.99724820  1
  O  O1500  1  0.03354780  0.16645220  0.11905640  1
  O  O1501  1  0.03354780  0.16645220  0.31905640  1
  O  O1502  1  0.03354780  0.16645220  0.51905640  1
  O  O1503  1  0.03354780  0.16645220  0.71905640  1
  O  O1504  1  0.03354780  0.16645220  0.91905640  1
  O  O1505  1  0.03354780  0.36645220  0.11905640  1
  O  O1506  1  0.03354780  0.36645220  0.31905640  1
  O  O1507  1  0.03354780  0.36645220  0.51905640  1
  O  O1508  1  0.03354780  0.36645220  0.71905640  1
  O  O1509  1  0.03354780  0.36645220  0.91905640  1
  O  O1510  1  0.03354780  0.56645220  0.11905640  1
  O  O1511  1  0.03354780  0.56645220  0.31905640  1
  O  O1512  1  0.03354780  0.56645220  0.51905640  1
  O  O1513  1  0.03354780  0.56645220  0.71905640  1
  O  O1514  1  0.03354780  0.56645220  0.91905640  1
  O  O1515  1  0.03354780  0.76645220  0.11905640  1
  O  O1516  1  0.03354780  0.76645220  0.31905640  1
  O  O1517  1  0.03354780  0.76645220  0.51905640  1
  O  O1518  1  0.03354780  0.76645220  0.71905640  1
  O  O1519  1  0.03354780  0.76645220  0.91905640  1
  O  O1520  1  0.03354780  0.96645220  0.11905640  1
  O  O1521  1  0.03354780  0.96645220  0.31905640  1
  O  O1522  1  0.03354780  0.96645220  0.51905640  1
  O  O1523  1  0.03354780  0.96645220  0.71905640  1
  O  O1524  1  0.03354780  0.96645220  0.91905640  1
  O  O1525  1  0.23354780  0.16645220  0.11905640  1
  O  O1526  1  0.23354780  0.16645220  0.31905640  1
  O  O1527  1  0.23354780  0.16645220  0.51905640  1
  O  O1528  1  0.23354780  0.16645220  0.71905640  1
  O  O1529  1  0.23354780  0.16645220  0.91905640  1
  O  O1530  1  0.23354780  0.36645220  0.11905640  1
  O  O1531  1  0.23354780  0.36645220  0.31905640  1
  O  O1532  1  0.23354780  0.36645220  0.51905640  1
  O  O1533  1  0.23354780  0.36645220  0.71905640  1
  O  O1534  1  0.23354780  0.36645220  0.91905640  1
  O  O1535  1  0.23354780  0.56645220  0.11905640  1
  O  O1536  1  0.23354780  0.56645220  0.31905640  1
  O  O1537  1  0.23354780  0.56645220  0.51905640  1
  O  O1538  1  0.23354780  0.56645220  0.71905640  1
  O  O1539  1  0.23354780  0.56645220  0.91905640  1
  O  O1540  1  0.23354780  0.76645220  0.11905640  1
  O  O1541  1  0.23354780  0.76645220  0.31905640  1
  O  O1542  1  0.23354780  0.76645220  0.51905640  1
  O  O1543  1  0.23354780  0.76645220  0.71905640  1
  O  O1544  1  0.23354780  0.76645220  0.91905640  1
  O  O1545  1  0.23354780  0.96645220  0.11905640  1
  O  O1546  1  0.23354780  0.96645220  0.31905640  1
  O  O1547  1  0.23354780  0.96645220  0.51905640  1
  O  O1548  1  0.23354780  0.96645220  0.71905640  1
  O  O1549  1  0.23354780  0.96645220  0.91905640  1
  O  O1550  1  0.43354780  0.16645220  0.11905640  1
  O  O1551  1  0.43354780  0.16645220  0.31905640  1
  O  O1552  1  0.43354780  0.16645220  0.51905640  1
  O  O1553  1  0.43354780  0.16645220  0.71905640  1
  O  O1554  1  0.43354780  0.16645220  0.91905640  1
  O  O1555  1  0.43354780  0.36645220  0.11905640  1
  O  O1556  1  0.43354780  0.36645220  0.31905640  1
  O  O1557  1  0.43354780  0.36645220  0.51905640  1
  O  O1558  1  0.43354780  0.36645220  0.71905640  1
  O  O1559  1  0.43354780  0.36645220  0.91905640  1
  O  O1560  1  0.43354780  0.56645220  0.11905640  1
  O  O1561  1  0.43354780  0.56645220  0.31905640  1
  O  O1562  1  0.43354780  0.56645220  0.51905640  1
  O  O1563  1  0.43354780  0.56645220  0.71905640  1
  O  O1564  1  0.43354780  0.56645220  0.91905640  1
  O  O1565  1  0.43354780  0.76645220  0.11905640  1
  O  O1566  1  0.43354780  0.76645220  0.31905640  1
  O  O1567  1  0.43354780  0.76645220  0.51905640  1
  O  O1568  1  0.43354780  0.76645220  0.71905640  1
  O  O1569  1  0.43354780  0.76645220  0.91905640  1
  O  O1570  1  0.43354780  0.96645220  0.11905640  1
  O  O1571  1  0.43354780  0.96645220  0.31905640  1
  O  O1572  1  0.43354780  0.96645220  0.51905640  1
  O  O1573  1  0.43354780  0.96645220  0.71905640  1
  O  O1574  1  0.43354780  0.96645220  0.91905640  1
  O  O1575  1  0.63354780  0.16645220  0.11905640  1
  O  O1576  1  0.63354780  0.16645220  0.31905640  1
  O  O1577  1  0.63354780  0.16645220  0.51905640  1
  O  O1578  1  0.63354780  0.16645220  0.71905640  1
  O  O1579  1  0.63354780  0.16645220  0.91905640  1
  O  O1580  1  0.63354780  0.36645220  0.11905640  1
  O  O1581  1  0.63354780  0.36645220  0.31905640  1
  O  O1582  1  0.63354780  0.36645220  0.51905640  1
  O  O1583  1  0.63354780  0.36645220  0.71905640  1
  O  O1584  1  0.63354780  0.36645220  0.91905640  1
  O  O1585  1  0.63354780  0.56645220  0.11905640  1
  O  O1586  1  0.63354780  0.56645220  0.31905640  1
  O  O1587  1  0.63354780  0.56645220  0.51905640  1
  O  O1588  1  0.63354780  0.56645220  0.71905640  1
  O  O1589  1  0.63354780  0.56645220  0.91905640  1
  O  O1590  1  0.63354780  0.76645220  0.11905640  1
  O  O1591  1  0.63354780  0.76645220  0.31905640  1
  O  O1592  1  0.63354780  0.76645220  0.51905640  1
  O  O1593  1  0.63354780  0.76645220  0.71905640  1
  O  O1594  1  0.63354780  0.76645220  0.91905640  1
  O  O1595  1  0.63354780  0.96645220  0.11905640  1
  O  O1596  1  0.63354780  0.96645220  0.31905640  1
  O  O1597  1  0.63354780  0.96645220  0.51905640  1
  O  O1598  1  0.63354780  0.96645220  0.71905640  1
  O  O1599  1  0.63354780  0.96645220  0.91905640  1
  O  O1600  1  0.83354780  0.16645220  0.11905640  1
  O  O1601  1  0.83354780  0.16645220  0.31905640  1
  O  O1602  1  0.83354780  0.16645220  0.51905640  1
  O  O1603  1  0.83354780  0.16645220  0.71905640  1
  O  O1604  1  0.83354780  0.16645220  0.91905640  1
  O  O1605  1  0.83354780  0.36645220  0.11905640  1
  O  O1606  1  0.83354780  0.36645220  0.31905640  1
  O  O1607  1  0.83354780  0.36645220  0.51905640  1
  O  O1608  1  0.83354780  0.36645220  0.71905640  1
  O  O1609  1  0.83354780  0.36645220  0.91905640  1
  O  O1610  1  0.83354780  0.56645220  0.11905640  1
  O  O1611  1  0.83354780  0.56645220  0.31905640  1
  O  O1612  1  0.83354780  0.56645220  0.51905640  1
  O  O1613  1  0.83354780  0.56645220  0.71905640  1
  O  O1614  1  0.83354780  0.56645220  0.91905640  1
  O  O1615  1  0.83354780  0.76645220  0.11905640  1
  O  O1616  1  0.83354780  0.76645220  0.31905640  1
  O  O1617  1  0.83354780  0.76645220  0.51905640  1
  O  O1618  1  0.83354780  0.76645220  0.71905640  1
  O  O1619  1  0.83354780  0.76645220  0.91905640  1
  O  O1620  1  0.83354780  0.96645220  0.11905640  1
  O  O1621  1  0.83354780  0.96645220  0.31905640  1
  O  O1622  1  0.83354780  0.96645220  0.51905640  1
  O  O1623  1  0.83354780  0.96645220  0.71905640  1
  O  O1624  1  0.83354780  0.96645220  0.91905640  1
  O  O1625  1  0.00733580  0.10366800  0.06941540  1
  O  O1626  1  0.00733580  0.10366800  0.26941540  1
  O  O1627  1  0.00733580  0.10366800  0.46941540  1
  O  O1628  1  0.00733580  0.10366800  0.66941540  1
  O  O1629  1  0.00733580  0.10366800  0.86941540  1
  O  O1630  1  0.00733580  0.30366800  0.06941540  1
  O  O1631  1  0.00733580  0.30366800  0.26941540  1
  O  O1632  1  0.00733580  0.30366800  0.46941540  1
  O  O1633  1  0.00733580  0.30366800  0.66941540  1
  O  O1634  1  0.00733580  0.30366800  0.86941540  1
  O  O1635  1  0.00733580  0.50366800  0.06941540  1
  O  O1636  1  0.00733580  0.50366800  0.26941540  1
  O  O1637  1  0.00733580  0.50366800  0.46941540  1
  O  O1638  1  0.00733580  0.50366800  0.66941540  1
  O  O1639  1  0.00733580  0.50366800  0.86941540  1
  O  O1640  1  0.00733580  0.70366800  0.06941540  1
  O  O1641  1  0.00733580  0.70366800  0.26941540  1
  O  O1642  1  0.00733580  0.70366800  0.46941540  1
  O  O1643  1  0.00733580  0.70366800  0.66941540  1
  O  O1644  1  0.00733580  0.70366800  0.86941540  1
  O  O1645  1  0.00733580  0.90366800  0.06941540  1
  O  O1646  1  0.00733580  0.90366800  0.26941540  1
  O  O1647  1  0.00733580  0.90366800  0.46941540  1
  O  O1648  1  0.00733580  0.90366800  0.66941540  1
  O  O1649  1  0.00733580  0.90366800  0.86941540  1
  O  O1650  1  0.20733580  0.10366800  0.06941540  1
  O  O1651  1  0.20733580  0.10366800  0.26941540  1
  O  O1652  1  0.20733580  0.10366800  0.46941540  1
  O  O1653  1  0.20733580  0.10366800  0.66941540  1
  O  O1654  1  0.20733580  0.10366800  0.86941540  1
  O  O1655  1  0.20733580  0.30366800  0.06941540  1
  O  O1656  1  0.20733580  0.30366800  0.26941540  1
  O  O1657  1  0.20733580  0.30366800  0.46941540  1
  O  O1658  1  0.20733580  0.30366800  0.66941540  1
  O  O1659  1  0.20733580  0.30366800  0.86941540  1
  O  O1660  1  0.20733580  0.50366800  0.06941540  1
  O  O1661  1  0.20733580  0.50366800  0.26941540  1
  O  O1662  1  0.20733580  0.50366800  0.46941540  1
  O  O1663  1  0.20733580  0.50366800  0.66941540  1
  O  O1664  1  0.20733580  0.50366800  0.86941540  1
  O  O1665  1  0.20733580  0.70366800  0.06941540  1
  O  O1666  1  0.20733580  0.70366800  0.26941540  1
  O  O1667  1  0.20733580  0.70366800  0.46941540  1
  O  O1668  1  0.20733580  0.70366800  0.66941540  1
  O  O1669  1  0.20733580  0.70366800  0.86941540  1
  O  O1670  1  0.20733580  0.90366800  0.06941540  1
  O  O1671  1  0.20733580  0.90366800  0.26941540  1
  O  O1672  1  0.20733580  0.90366800  0.46941540  1
  O  O1673  1  0.20733580  0.90366800  0.66941540  1
  O  O1674  1  0.20733580  0.90366800  0.86941540  1
  O  O1675  1  0.40733580  0.10366800  0.06941540  1
  O  O1676  1  0.40733580  0.10366800  0.26941540  1
  O  O1677  1  0.40733580  0.10366800  0.46941540  1
  O  O1678  1  0.40733580  0.10366800  0.66941540  1
  O  O1679  1  0.40733580  0.10366800  0.86941540  1
  O  O1680  1  0.40733580  0.30366800  0.06941540  1
  O  O1681  1  0.40733580  0.30366800  0.26941540  1
  O  O1682  1  0.40733580  0.30366800  0.46941540  1
  O  O1683  1  0.40733580  0.30366800  0.66941540  1
  O  O1684  1  0.40733580  0.30366800  0.86941540  1
  O  O1685  1  0.40733580  0.50366800  0.06941540  1
  O  O1686  1  0.40733580  0.50366800  0.26941540  1
  O  O1687  1  0.40733580  0.50366800  0.46941540  1
  O  O1688  1  0.40733580  0.50366800  0.66941540  1
  O  O1689  1  0.40733580  0.50366800  0.86941540  1
  O  O1690  1  0.40733580  0.70366800  0.06941540  1
  O  O1691  1  0.40733580  0.70366800  0.26941540  1
  O  O1692  1  0.40733580  0.70366800  0.46941540  1
  O  O1693  1  0.40733580  0.70366800  0.66941540  1
  O  O1694  1  0.40733580  0.70366800  0.86941540  1
  O  O1695  1  0.40733580  0.90366800  0.06941540  1
  O  O1696  1  0.40733580  0.90366800  0.26941540  1
  O  O1697  1  0.40733580  0.90366800  0.46941540  1
  O  O1698  1  0.40733580  0.90366800  0.66941540  1
  O  O1699  1  0.40733580  0.90366800  0.86941540  1
  O  O1700  1  0.60733580  0.10366800  0.06941540  1
  O  O1701  1  0.60733580  0.10366800  0.26941540  1
  O  O1702  1  0.60733580  0.10366800  0.46941540  1
  O  O1703  1  0.60733580  0.10366800  0.66941540  1
  O  O1704  1  0.60733580  0.10366800  0.86941540  1
  O  O1705  1  0.60733580  0.30366800  0.06941540  1
  O  O1706  1  0.60733580  0.30366800  0.26941540  1
  O  O1707  1  0.60733580  0.30366800  0.46941540  1
  O  O1708  1  0.60733580  0.30366800  0.66941540  1
  O  O1709  1  0.60733580  0.30366800  0.86941540  1
  O  O1710  1  0.60733580  0.50366800  0.06941540  1
  O  O1711  1  0.60733580  0.50366800  0.26941540  1
  O  O1712  1  0.60733580  0.50366800  0.46941540  1
  O  O1713  1  0.60733580  0.50366800  0.66941540  1
  O  O1714  1  0.60733580  0.50366800  0.86941540  1
  O  O1715  1  0.60733580  0.70366800  0.06941540  1
  O  O1716  1  0.60733580  0.70366800  0.26941540  1
  O  O1717  1  0.60733580  0.70366800  0.46941540  1
  O  O1718  1  0.60733580  0.70366800  0.66941540  1
  O  O1719  1  0.60733580  0.70366800  0.86941540  1
  O  O1720  1  0.60733580  0.90366800  0.06941540  1
  O  O1721  1  0.60733580  0.90366800  0.26941540  1
  O  O1722  1  0.60733580  0.90366800  0.46941540  1
  O  O1723  1  0.60733580  0.90366800  0.66941540  1
  O  O1724  1  0.60733580  0.90366800  0.86941540  1
  O  O1725  1  0.80733580  0.10366800  0.06941540  1
  O  O1726  1  0.80733580  0.10366800  0.26941540  1
  O  O1727  1  0.80733580  0.10366800  0.46941540  1
  O  O1728  1  0.80733580  0.10366800  0.66941540  1
  O  O1729  1  0.80733580  0.10366800  0.86941540  1
  O  O1730  1  0.80733580  0.30366800  0.06941540  1
  O  O1731  1  0.80733580  0.30366800  0.26941540  1
  O  O1732  1  0.80733580  0.30366800  0.46941540  1
  O  O1733  1  0.80733580  0.30366800  0.66941540  1
  O  O1734  1  0.80733580  0.30366800  0.86941540  1
  O  O1735  1  0.80733580  0.50366800  0.06941540  1
  O  O1736  1  0.80733580  0.50366800  0.26941540  1
  O  O1737  1  0.80733580  0.50366800  0.46941540  1
  O  O1738  1  0.80733580  0.50366800  0.66941540  1
  O  O1739  1  0.80733580  0.50366800  0.86941540  1
  O  O1740  1  0.80733580  0.70366800  0.06941540  1
  O  O1741  1  0.80733580  0.70366800  0.26941540  1
  O  O1742  1  0.80733580  0.70366800  0.46941540  1
  O  O1743  1  0.80733580  0.70366800  0.66941540  1
  O  O1744  1  0.80733580  0.70366800  0.86941540  1
  O  O1745  1  0.80733580  0.90366800  0.06941540  1
  O  O1746  1  0.80733580  0.90366800  0.26941540  1
  O  O1747  1  0.80733580  0.90366800  0.46941540  1
  O  O1748  1  0.80733580  0.90366800  0.66941540  1
  O  O1749  1  0.80733580  0.90366800  0.86941540  1
  O  O1750  1  0.06666660  0.13333340  0.02139980  1
  O  O1751  1  0.06666660  0.13333340  0.22139980  1
  O  O1752  1  0.06666660  0.13333340  0.42139980  1
  O  O1753  1  0.06666660  0.13333340  0.62139980  1
  O  O1754  1  0.06666660  0.13333340  0.82139980  1
  O  O1755  1  0.06666660  0.33333340  0.02139980  1
  O  O1756  1  0.06666660  0.33333340  0.22139980  1
  O  O1757  1  0.06666660  0.33333340  0.42139980  1
  O  O1758  1  0.06666660  0.33333340  0.62139980  1
  O  O1759  1  0.06666660  0.33333340  0.82139980  1
  O  O1760  1  0.06666660  0.53333340  0.02139980  1
  O  O1761  1  0.06666660  0.53333340  0.22139980  1
  O  O1762  1  0.06666660  0.53333340  0.42139980  1
  O  O1763  1  0.06666660  0.53333340  0.62139980  1
  O  O1764  1  0.06666660  0.53333340  0.82139980  1
  O  O1765  1  0.06666660  0.73333340  0.02139980  1
  O  O1766  1  0.06666660  0.73333340  0.22139980  1
  O  O1767  1  0.06666660  0.73333340  0.42139980  1
  O  O1768  1  0.06666660  0.73333340  0.62139980  1
  O  O1769  1  0.06666660  0.73333340  0.82139980  1
  O  O1770  1  0.06666660  0.93333340  0.02139980  1
  O  O1771  1  0.06666660  0.93333340  0.22139980  1
  O  O1772  1  0.06666660  0.93333340  0.42139980  1
  O  O1773  1  0.06666660  0.93333340  0.62139980  1
  O  O1774  1  0.06666660  0.93333340  0.82139980  1
  O  O1775  1  0.26666660  0.13333340  0.02139980  1
  O  O1776  1  0.26666660  0.13333340  0.22139980  1
  O  O1777  1  0.26666660  0.13333340  0.42139980  1
  O  O1778  1  0.26666660  0.13333340  0.62139980  1
  O  O1779  1  0.26666660  0.13333340  0.82139980  1
  O  O1780  1  0.26666660  0.33333340  0.02139980  1
  O  O1781  1  0.26666660  0.33333340  0.22139980  1
  O  O1782  1  0.26666660  0.33333340  0.42139980  1
  O  O1783  1  0.26666660  0.33333340  0.62139980  1
  O  O1784  1  0.26666660  0.33333340  0.82139980  1
  O  O1785  1  0.26666660  0.53333340  0.02139980  1
  O  O1786  1  0.26666660  0.53333340  0.22139980  1
  O  O1787  1  0.26666660  0.53333340  0.42139980  1
  O  O1788  1  0.26666660  0.53333340  0.62139980  1
  O  O1789  1  0.26666660  0.53333340  0.82139980  1
  O  O1790  1  0.26666660  0.73333340  0.02139980  1
  O  O1791  1  0.26666660  0.73333340  0.22139980  1
  O  O1792  1  0.26666660  0.73333340  0.42139980  1
  O  O1793  1  0.26666660  0.73333340  0.62139980  1
  O  O1794  1  0.26666660  0.73333340  0.82139980  1
  O  O1795  1  0.26666660  0.93333340  0.02139980  1
  O  O1796  1  0.26666660  0.93333340  0.22139980  1
  O  O1797  1  0.26666660  0.93333340  0.42139980  1
  O  O1798  1  0.26666660  0.93333340  0.62139980  1
  O  O1799  1  0.26666660  0.93333340  0.82139980  1
  O  O1800  1  0.46666660  0.13333340  0.02139980  1
  O  O1801  1  0.46666660  0.13333340  0.22139980  1
  O  O1802  1  0.46666660  0.13333340  0.42139980  1
  O  O1803  1  0.46666660  0.13333340  0.62139980  1
  O  O1804  1  0.46666660  0.13333340  0.82139980  1
  O  O1805  1  0.46666660  0.33333340  0.02139980  1
  O  O1806  1  0.46666660  0.33333340  0.22139980  1
  O  O1807  1  0.46666660  0.33333340  0.42139980  1
  O  O1808  1  0.46666660  0.33333340  0.62139980  1
  O  O1809  1  0.46666660  0.33333340  0.82139980  1
  O  O1810  1  0.46666660  0.53333340  0.02139980  1
  O  O1811  1  0.46666660  0.53333340  0.22139980  1
  O  O1812  1  0.46666660  0.53333340  0.42139980  1
  O  O1813  1  0.46666660  0.53333340  0.62139980  1
  O  O1814  1  0.46666660  0.53333340  0.82139980  1
  O  O1815  1  0.46666660  0.73333340  0.02139980  1
  O  O1816  1  0.46666660  0.73333340  0.22139980  1
  O  O1817  1  0.46666660  0.73333340  0.42139980  1
  O  O1818  1  0.46666660  0.73333340  0.62139980  1
  O  O1819  1  0.46666660  0.73333340  0.82139980  1
  O  O1820  1  0.46666660  0.93333340  0.02139980  1
  O  O1821  1  0.46666660  0.93333340  0.22139980  1
  O  O1822  1  0.46666660  0.93333340  0.42139980  1
  O  O1823  1  0.46666660  0.93333340  0.62139980  1
  O  O1824  1  0.46666660  0.93333340  0.82139980  1
  O  O1825  1  0.66666660  0.13333340  0.02139980  1
  O  O1826  1  0.66666660  0.13333340  0.22139980  1
  O  O1827  1  0.66666660  0.13333340  0.42139980  1
  O  O1828  1  0.66666660  0.13333340  0.62139980  1
  O  O1829  1  0.66666660  0.13333340  0.82139980  1
  O  O1830  1  0.66666660  0.33333340  0.02139980  1
  O  O1831  1  0.66666660  0.33333340  0.22139980  1
  O  O1832  1  0.66666660  0.33333340  0.42139980  1
  O  O1833  1  0.66666660  0.33333340  0.62139980  1
  O  O1834  1  0.66666660  0.33333340  0.82139980  1
  O  O1835  1  0.66666660  0.53333340  0.02139980  1
  O  O1836  1  0.66666660  0.53333340  0.22139980  1
  O  O1837  1  0.66666660  0.53333340  0.42139980  1
  O  O1838  1  0.66666660  0.53333340  0.62139980  1
  O  O1839  1  0.66666660  0.53333340  0.82139980  1
  O  O1840  1  0.66666660  0.73333340  0.02139980  1
  O  O1841  1  0.66666660  0.73333340  0.22139980  1
  O  O1842  1  0.66666660  0.73333340  0.42139980  1
  O  O1843  1  0.66666660  0.73333340  0.62139980  1
  O  O1844  1  0.66666660  0.73333340  0.82139980  1
  O  O1845  1  0.66666660  0.93333340  0.02139980  1
  O  O1846  1  0.66666660  0.93333340  0.22139980  1
  O  O1847  1  0.66666660  0.93333340  0.42139980  1
  O  O1848  1  0.66666660  0.93333340  0.62139980  1
  O  O1849  1  0.66666660  0.93333340  0.82139980  1
  O  O1850  1  0.86666660  0.13333340  0.02139980  1
  O  O1851  1  0.86666660  0.13333340  0.22139980  1
  O  O1852  1  0.86666660  0.13333340  0.42139980  1
  O  O1853  1  0.86666660  0.13333340  0.62139980  1
  O  O1854  1  0.86666660  0.13333340  0.82139980  1
  O  O1855  1  0.86666660  0.33333340  0.02139980  1
  O  O1856  1  0.86666660  0.33333340  0.22139980  1
  O  O1857  1  0.86666660  0.33333340  0.42139980  1
  O  O1858  1  0.86666660  0.33333340  0.62139980  1
  O  O1859  1  0.86666660  0.33333340  0.82139980  1
  O  O1860  1  0.86666660  0.53333340  0.02139980  1
  O  O1861  1  0.86666660  0.53333340  0.22139980  1
  O  O1862  1  0.86666660  0.53333340  0.42139980  1
  O  O1863  1  0.86666660  0.53333340  0.62139980  1
  O  O1864  1  0.86666660  0.53333340  0.82139980  1
  O  O1865  1  0.86666660  0.73333340  0.02139980  1
  O  O1866  1  0.86666660  0.73333340  0.22139980  1
  O  O1867  1  0.86666660  0.73333340  0.42139980  1
  O  O1868  1  0.86666660  0.73333340  0.62139980  1
  O  O1869  1  0.86666660  0.73333340  0.82139980  1
  O  O1870  1  0.86666660  0.93333340  0.02139980  1
  O  O1871  1  0.86666660  0.93333340  0.22139980  1
  O  O1872  1  0.86666660  0.93333340  0.42139980  1
  O  O1873  1  0.86666660  0.93333340  0.62139980  1
  O  O1874  1  0.86666660  0.93333340  0.82139980  1
  O  O1875  1  0.00000000  0.00000000  0.06048040  1
  O  O1876  1  0.00000000  0.00000000  0.26048040  1
  O  O1877  1  0.00000000  0.00000000  0.46048040  1
  O  O1878  1  0.00000000  0.00000000  0.66048040  1
  O  O1879  1  0.00000000  0.00000000  0.86048040  1
  O  O1880  1  0.00000000  0.20000000  0.06048040  1
  O  O1881  1  0.00000000  0.20000000  0.26048040  1
  O  O1882  1  0.00000000  0.20000000  0.46048040  1
  O  O1883  1  0.00000000  0.20000000  0.66048040  1
  O  O1884  1  0.00000000  0.20000000  0.86048040  1
  O  O1885  1  0.00000000  0.40000000  0.06048040  1
  O  O1886  1  0.00000000  0.40000000  0.26048040  1
  O  O1887  1  0.00000000  0.40000000  0.46048040  1
  O  O1888  1  0.00000000  0.40000000  0.66048040  1
  O  O1889  1  0.00000000  0.40000000  0.86048040  1
  O  O1890  1  0.00000000  0.60000000  0.06048040  1
  O  O1891  1  0.00000000  0.60000000  0.26048040  1
  O  O1892  1  0.00000000  0.60000000  0.46048040  1
  O  O1893  1  0.00000000  0.60000000  0.66048040  1
  O  O1894  1  0.00000000  0.60000000  0.86048040  1
  O  O1895  1  0.00000000  0.80000000  0.06048040  1
  O  O1896  1  0.00000000  0.80000000  0.26048040  1
  O  O1897  1  0.00000000  0.80000000  0.46048040  1
  O  O1898  1  0.00000000  0.80000000  0.66048040  1
  O  O1899  1  0.00000000  0.80000000  0.86048040  1
  O  O1900  1  0.20000000  0.00000000  0.06048040  1
  O  O1901  1  0.20000000  0.00000000  0.26048040  1
  O  O1902  1  0.20000000  0.00000000  0.46048040  1
  O  O1903  1  0.20000000  0.00000000  0.66048040  1
  O  O1904  1  0.20000000  0.00000000  0.86048040  1
  O  O1905  1  0.20000000  0.20000000  0.06048040  1
  O  O1906  1  0.20000000  0.20000000  0.26048040  1
  O  O1907  1  0.20000000  0.20000000  0.46048040  1
  O  O1908  1  0.20000000  0.20000000  0.66048040  1
  O  O1909  1  0.20000000  0.20000000  0.86048040  1
  O  O1910  1  0.20000000  0.40000000  0.06048040  1
  O  O1911  1  0.20000000  0.40000000  0.26048040  1
  O  O1912  1  0.20000000  0.40000000  0.46048040  1
  O  O1913  1  0.20000000  0.40000000  0.66048040  1
  O  O1914  1  0.20000000  0.40000000  0.86048040  1
  O  O1915  1  0.20000000  0.60000000  0.06048040  1
  O  O1916  1  0.20000000  0.60000000  0.26048040  1
  O  O1917  1  0.20000000  0.60000000  0.46048040  1
  O  O1918  1  0.20000000  0.60000000  0.66048040  1
  O  O1919  1  0.20000000  0.60000000  0.86048040  1
  O  O1920  1  0.20000000  0.80000000  0.06048040  1
  O  O1921  1  0.20000000  0.80000000  0.26048040  1
  O  O1922  1  0.20000000  0.80000000  0.46048040  1
  O  O1923  1  0.20000000  0.80000000  0.66048040  1
  O  O1924  1  0.20000000  0.80000000  0.86048040  1
  O  O1925  1  0.40000000  0.00000000  0.06048040  1
  O  O1926  1  0.40000000  0.00000000  0.26048040  1
  O  O1927  1  0.40000000  0.00000000  0.46048040  1
  O  O1928  1  0.40000000  0.00000000  0.66048040  1
  O  O1929  1  0.40000000  0.00000000  0.86048040  1
  O  O1930  1  0.40000000  0.20000000  0.06048040  1
  O  O1931  1  0.40000000  0.20000000  0.26048040  1
  O  O1932  1  0.40000000  0.20000000  0.46048040  1
  O  O1933  1  0.40000000  0.20000000  0.66048040  1
  O  O1934  1  0.40000000  0.20000000  0.86048040  1
  O  O1935  1  0.40000000  0.40000000  0.06048040  1
  O  O1936  1  0.40000000  0.40000000  0.26048040  1
  O  O1937  1  0.40000000  0.40000000  0.46048040  1
  O  O1938  1  0.40000000  0.40000000  0.66048040  1
  O  O1939  1  0.40000000  0.40000000  0.86048040  1
  O  O1940  1  0.40000000  0.60000000  0.06048040  1
  O  O1941  1  0.40000000  0.60000000  0.26048040  1
  O  O1942  1  0.40000000  0.60000000  0.46048040  1
  O  O1943  1  0.40000000  0.60000000  0.66048040  1
  O  O1944  1  0.40000000  0.60000000  0.86048040  1
  O  O1945  1  0.40000000  0.80000000  0.06048040  1
  O  O1946  1  0.40000000  0.80000000  0.26048040  1
  O  O1947  1  0.40000000  0.80000000  0.46048040  1
  O  O1948  1  0.40000000  0.80000000  0.66048040  1
  O  O1949  1  0.40000000  0.80000000  0.86048040  1
  O  O1950  1  0.60000000  0.00000000  0.06048040  1
  O  O1951  1  0.60000000  0.00000000  0.26048040  1
  O  O1952  1  0.60000000  0.00000000  0.46048040  1
  O  O1953  1  0.60000000  0.00000000  0.66048040  1
  O  O1954  1  0.60000000  0.00000000  0.86048040  1
  O  O1955  1  0.60000000  0.20000000  0.06048040  1
  O  O1956  1  0.60000000  0.20000000  0.26048040  1
  O  O1957  1  0.60000000  0.20000000  0.46048040  1
  O  O1958  1  0.60000000  0.20000000  0.66048040  1
  O  O1959  1  0.60000000  0.20000000  0.86048040  1
  O  O1960  1  0.60000000  0.40000000  0.06048040  1
  O  O1961  1  0.60000000  0.40000000  0.26048040  1
  O  O1962  1  0.60000000  0.40000000  0.46048040  1
  O  O1963  1  0.60000000  0.40000000  0.66048040  1
  O  O1964  1  0.60000000  0.40000000  0.86048040  1
  O  O1965  1  0.60000000  0.60000000  0.06048040  1
  O  O1966  1  0.60000000  0.60000000  0.26048040  1
  O  O1967  1  0.60000000  0.60000000  0.46048040  1
  O  O1968  1  0.60000000  0.60000000  0.66048040  1
  O  O1969  1  0.60000000  0.60000000  0.86048040  1
  O  O1970  1  0.60000000  0.80000000  0.06048040  1
  O  O1971  1  0.60000000  0.80000000  0.26048040  1
  O  O1972  1  0.60000000  0.80000000  0.46048040  1
  O  O1973  1  0.60000000  0.80000000  0.66048040  1
  O  O1974  1  0.60000000  0.80000000  0.86048040  1
  O  O1975  1  0.80000000  0.00000000  0.06048040  1
  O  O1976  1  0.80000000  0.00000000  0.26048040  1
  O  O1977  1  0.80000000  0.00000000  0.46048040  1
  O  O1978  1  0.80000000  0.00000000  0.66048040  1
  O  O1979  1  0.80000000  0.00000000  0.86048040  1
  O  O1980  1  0.80000000  0.20000000  0.06048040  1
  O  O1981  1  0.80000000  0.20000000  0.26048040  1
  O  O1982  1  0.80000000  0.20000000  0.46048040  1
  O  O1983  1  0.80000000  0.20000000  0.66048040  1
  O  O1984  1  0.80000000  0.20000000  0.86048040  1
  O  O1985  1  0.80000000  0.40000000  0.06048040  1
  O  O1986  1  0.80000000  0.40000000  0.26048040  1
  O  O1987  1  0.80000000  0.40000000  0.46048040  1
  O  O1988  1  0.80000000  0.40000000  0.66048040  1
  O  O1989  1  0.80000000  0.40000000  0.86048040  1
  O  O1990  1  0.80000000  0.60000000  0.06048040  1
  O  O1991  1  0.80000000  0.60000000  0.26048040  1
  O  O1992  1  0.80000000  0.60000000  0.46048040  1
  O  O1993  1  0.80000000  0.60000000  0.66048040  1
  O  O1994  1  0.80000000  0.60000000  0.86048040  1
  O  O1995  1  0.80000000  0.80000000  0.06048040  1
  O  O1996  1  0.80000000  0.80000000  0.26048040  1
  O  O1997  1  0.80000000  0.80000000  0.46048040  1
  O  O1998  1  0.80000000  0.80000000  0.66048040  1
  O  O1999  1  0.80000000  0.80000000  0.86048040  1
  O  O2000  1  0.00000000  0.00000000  0.16048040  1
  O  O2001  1  0.00000000  0.00000000  0.36048040  1
  O  O2002  1  0.00000000  0.00000000  0.56048040  1
  O  O2003  1  0.00000000  0.00000000  0.76048040  1
  O  O2004  1  0.00000000  0.00000000  0.96048040  1
  O  O2005  1  0.00000000  0.20000000  0.16048040  1
  O  O2006  1  0.00000000  0.20000000  0.36048040  1
  O  O2007  1  0.00000000  0.20000000  0.56048040  1
  O  O2008  1  0.00000000  0.20000000  0.76048040  1
  O  O2009  1  0.00000000  0.20000000  0.96048040  1
  O  O2010  1  0.00000000  0.40000000  0.16048040  1
  O  O2011  1  0.00000000  0.40000000  0.36048040  1
  O  O2012  1  0.00000000  0.40000000  0.56048040  1
  O  O2013  1  0.00000000  0.40000000  0.76048040  1
  O  O2014  1  0.00000000  0.40000000  0.96048040  1
  O  O2015  1  0.00000000  0.60000000  0.16048040  1
  O  O2016  1  0.00000000  0.60000000  0.36048040  1
  O  O2017  1  0.00000000  0.60000000  0.56048040  1
  O  O2018  1  0.00000000  0.60000000  0.76048040  1
  O  O2019  1  0.00000000  0.60000000  0.96048040  1
  O  O2020  1  0.00000000  0.80000000  0.16048040  1
  O  O2021  1  0.00000000  0.80000000  0.36048040  1
  O  O2022  1  0.00000000  0.80000000  0.56048040  1
  O  O2023  1  0.00000000  0.80000000  0.76048040  1
  O  O2024  1  0.00000000  0.80000000  0.96048040  1
  O  O2025  1  0.20000000  0.00000000  0.16048040  1
  O  O2026  1  0.20000000  0.00000000  0.36048040  1
  O  O2027  1  0.20000000  0.00000000  0.56048040  1
  O  O2028  1  0.20000000  0.00000000  0.76048040  1
  O  O2029  1  0.20000000  0.00000000  0.96048040  1
  O  O2030  1  0.20000000  0.20000000  0.16048040  1
  O  O2031  1  0.20000000  0.20000000  0.36048040  1
  O  O2032  1  0.20000000  0.20000000  0.56048040  1
  O  O2033  1  0.20000000  0.20000000  0.76048040  1
  O  O2034  1  0.20000000  0.20000000  0.96048040  1
  O  O2035  1  0.20000000  0.40000000  0.16048040  1
  O  O2036  1  0.20000000  0.40000000  0.36048040  1
  O  O2037  1  0.20000000  0.40000000  0.56048040  1
  O  O2038  1  0.20000000  0.40000000  0.76048040  1
  O  O2039  1  0.20000000  0.40000000  0.96048040  1
  O  O2040  1  0.20000000  0.60000000  0.16048040  1
  O  O2041  1  0.20000000  0.60000000  0.36048040  1
  O  O2042  1  0.20000000  0.60000000  0.56048040  1
  O  O2043  1  0.20000000  0.60000000  0.76048040  1
  O  O2044  1  0.20000000  0.60000000  0.96048040  1
  O  O2045  1  0.20000000  0.80000000  0.16048040  1
  O  O2046  1  0.20000000  0.80000000  0.36048040  1
  O  O2047  1  0.20000000  0.80000000  0.56048040  1
  O  O2048  1  0.20000000  0.80000000  0.76048040  1
  O  O2049  1  0.20000000  0.80000000  0.96048040  1
  O  O2050  1  0.40000000  0.00000000  0.16048040  1
  O  O2051  1  0.40000000  0.00000000  0.36048040  1
  O  O2052  1  0.40000000  0.00000000  0.56048040  1
  O  O2053  1  0.40000000  0.00000000  0.76048040  1
  O  O2054  1  0.40000000  0.00000000  0.96048040  1
  O  O2055  1  0.40000000  0.20000000  0.16048040  1
  O  O2056  1  0.40000000  0.20000000  0.36048040  1
  O  O2057  1  0.40000000  0.20000000  0.56048040  1
  O  O2058  1  0.40000000  0.20000000  0.76048040  1
  O  O2059  1  0.40000000  0.20000000  0.96048040  1
  O  O2060  1  0.40000000  0.40000000  0.16048040  1
  O  O2061  1  0.40000000  0.40000000  0.36048040  1
  O  O2062  1  0.40000000  0.40000000  0.56048040  1
  O  O2063  1  0.40000000  0.40000000  0.76048040  1
  O  O2064  1  0.40000000  0.40000000  0.96048040  1
  O  O2065  1  0.40000000  0.60000000  0.16048040  1
  O  O2066  1  0.40000000  0.60000000  0.36048040  1
  O  O2067  1  0.40000000  0.60000000  0.56048040  1
  O  O2068  1  0.40000000  0.60000000  0.76048040  1
  O  O2069  1  0.40000000  0.60000000  0.96048040  1
  O  O2070  1  0.40000000  0.80000000  0.16048040  1
  O  O2071  1  0.40000000  0.80000000  0.36048040  1
  O  O2072  1  0.40000000  0.80000000  0.56048040  1
  O  O2073  1  0.40000000  0.80000000  0.76048040  1
  O  O2074  1  0.40000000  0.80000000  0.96048040  1
  O  O2075  1  0.60000000  0.00000000  0.16048040  1
  O  O2076  1  0.60000000  0.00000000  0.36048040  1
  O  O2077  1  0.60000000  0.00000000  0.56048040  1
  O  O2078  1  0.60000000  0.00000000  0.76048040  1
  O  O2079  1  0.60000000  0.00000000  0.96048040  1
  O  O2080  1  0.60000000  0.20000000  0.16048040  1
  O  O2081  1  0.60000000  0.20000000  0.36048040  1
  O  O2082  1  0.60000000  0.20000000  0.56048040  1
  O  O2083  1  0.60000000  0.20000000  0.76048040  1
  O  O2084  1  0.60000000  0.20000000  0.96048040  1
  O  O2085  1  0.60000000  0.40000000  0.16048040  1
  O  O2086  1  0.60000000  0.40000000  0.36048040  1
  O  O2087  1  0.60000000  0.40000000  0.56048040  1
  O  O2088  1  0.60000000  0.40000000  0.76048040  1
  O  O2089  1  0.60000000  0.40000000  0.96048040  1
  O  O2090  1  0.60000000  0.60000000  0.16048040  1
  O  O2091  1  0.60000000  0.60000000  0.36048040  1
  O  O2092  1  0.60000000  0.60000000  0.56048040  1
  O  O2093  1  0.60000000  0.60000000  0.76048040  1
  O  O2094  1  0.60000000  0.60000000  0.96048040  1
  O  O2095  1  0.60000000  0.80000000  0.16048040  1
  O  O2096  1  0.60000000  0.80000000  0.36048040  1
  O  O2097  1  0.60000000  0.80000000  0.56048040  1
  O  O2098  1  0.60000000  0.80000000  0.76048040  1
  O  O2099  1  0.60000000  0.80000000  0.96048040  1
  O  O2100  1  0.80000000  0.00000000  0.16048040  1
  O  O2101  1  0.80000000  0.00000000  0.36048040  1
  O  O2102  1  0.80000000  0.00000000  0.56048040  1
  O  O2103  1  0.80000000  0.00000000  0.76048040  1
  O  O2104  1  0.80000000  0.00000000  0.96048040  1
  O  O2105  1  0.80000000  0.20000000  0.16048040  1
  O  O2106  1  0.80000000  0.20000000  0.36048040  1
  O  O2107  1  0.80000000  0.20000000  0.56048040  1
  O  O2108  1  0.80000000  0.20000000  0.76048040  1
  O  O2109  1  0.80000000  0.20000000  0.96048040  1
  O  O2110  1  0.80000000  0.40000000  0.16048040  1
  O  O2111  1  0.80000000  0.40000000  0.36048040  1
  O  O2112  1  0.80000000  0.40000000  0.56048040  1
  O  O2113  1  0.80000000  0.40000000  0.76048040  1
  O  O2114  1  0.80000000  0.40000000  0.96048040  1
  O  O2115  1  0.80000000  0.60000000  0.16048040  1
  O  O2116  1  0.80000000  0.60000000  0.36048040  1
  O  O2117  1  0.80000000  0.60000000  0.56048040  1
  O  O2118  1  0.80000000  0.60000000  0.76048040  1
  O  O2119  1  0.80000000  0.60000000  0.96048040  1
  O  O2120  1  0.80000000  0.80000000  0.16048040  1
  O  O2121  1  0.80000000  0.80000000  0.36048040  1
  O  O2122  1  0.80000000  0.80000000  0.56048040  1
  O  O2123  1  0.80000000  0.80000000  0.76048040  1
  O  O2124  1  0.80000000  0.80000000  0.96048040  1
  O  O2125  1  0.03354780  0.06709560  0.11905640  1
  O  O2126  1  0.03354780  0.06709560  0.31905640  1
  O  O2127  1  0.03354780  0.06709560  0.51905640  1
  O  O2128  1  0.03354780  0.06709560  0.71905640  1
  O  O2129  1  0.03354780  0.06709560  0.91905640  1
  O  O2130  1  0.03354780  0.26709560  0.11905640  1
  O  O2131  1  0.03354780  0.26709560  0.31905640  1
  O  O2132  1  0.03354780  0.26709560  0.51905640  1
  O  O2133  1  0.03354780  0.26709560  0.71905640  1
  O  O2134  1  0.03354780  0.26709560  0.91905640  1
  O  O2135  1  0.03354780  0.46709560  0.11905640  1
  O  O2136  1  0.03354780  0.46709560  0.31905640  1
  O  O2137  1  0.03354780  0.46709560  0.51905640  1
  O  O2138  1  0.03354780  0.46709560  0.71905640  1
  O  O2139  1  0.03354780  0.46709560  0.91905640  1
  O  O2140  1  0.03354780  0.66709560  0.11905640  1
  O  O2141  1  0.03354780  0.66709560  0.31905640  1
  O  O2142  1  0.03354780  0.66709560  0.51905640  1
  O  O2143  1  0.03354780  0.66709560  0.71905640  1
  O  O2144  1  0.03354780  0.66709560  0.91905640  1
  O  O2145  1  0.03354780  0.86709560  0.11905640  1
  O  O2146  1  0.03354780  0.86709560  0.31905640  1
  O  O2147  1  0.03354780  0.86709560  0.51905640  1
  O  O2148  1  0.03354780  0.86709560  0.71905640  1
  O  O2149  1  0.03354780  0.86709560  0.91905640  1
  O  O2150  1  0.23354780  0.06709560  0.11905640  1
  O  O2151  1  0.23354780  0.06709560  0.31905640  1
  O  O2152  1  0.23354780  0.06709560  0.51905640  1
  O  O2153  1  0.23354780  0.06709560  0.71905640  1
  O  O2154  1  0.23354780  0.06709560  0.91905640  1
  O  O2155  1  0.23354780  0.26709560  0.11905640  1
  O  O2156  1  0.23354780  0.26709560  0.31905640  1
  O  O2157  1  0.23354780  0.26709560  0.51905640  1
  O  O2158  1  0.23354780  0.26709560  0.71905640  1
  O  O2159  1  0.23354780  0.26709560  0.91905640  1
  O  O2160  1  0.23354780  0.46709560  0.11905640  1
  O  O2161  1  0.23354780  0.46709560  0.31905640  1
  O  O2162  1  0.23354780  0.46709560  0.51905640  1
  O  O2163  1  0.23354780  0.46709560  0.71905640  1
  O  O2164  1  0.23354780  0.46709560  0.91905640  1
  O  O2165  1  0.23354780  0.66709560  0.11905640  1
  O  O2166  1  0.23354780  0.66709560  0.31905640  1
  O  O2167  1  0.23354780  0.66709560  0.51905640  1
  O  O2168  1  0.23354780  0.66709560  0.71905640  1
  O  O2169  1  0.23354780  0.66709560  0.91905640  1
  O  O2170  1  0.23354780  0.86709560  0.11905640  1
  O  O2171  1  0.23354780  0.86709560  0.31905640  1
  O  O2172  1  0.23354780  0.86709560  0.51905640  1
  O  O2173  1  0.23354780  0.86709560  0.71905640  1
  O  O2174  1  0.23354780  0.86709560  0.91905640  1
  O  O2175  1  0.43354780  0.06709560  0.11905640  1
  O  O2176  1  0.43354780  0.06709560  0.31905640  1
  O  O2177  1  0.43354780  0.06709560  0.51905640  1
  O  O2178  1  0.43354780  0.06709560  0.71905640  1
  O  O2179  1  0.43354780  0.06709560  0.91905640  1
  O  O2180  1  0.43354780  0.26709560  0.11905640  1
  O  O2181  1  0.43354780  0.26709560  0.31905640  1
  O  O2182  1  0.43354780  0.26709560  0.51905640  1
  O  O2183  1  0.43354780  0.26709560  0.71905640  1
  O  O2184  1  0.43354780  0.26709560  0.91905640  1
  O  O2185  1  0.43354780  0.46709560  0.11905640  1
  O  O2186  1  0.43354780  0.46709560  0.31905640  1
  O  O2187  1  0.43354780  0.46709560  0.51905640  1
  O  O2188  1  0.43354780  0.46709560  0.71905640  1
  O  O2189  1  0.43354780  0.46709560  0.91905640  1
  O  O2190  1  0.43354780  0.66709560  0.11905640  1
  O  O2191  1  0.43354780  0.66709560  0.31905640  1
  O  O2192  1  0.43354780  0.66709560  0.51905640  1
  O  O2193  1  0.43354780  0.66709560  0.71905640  1
  O  O2194  1  0.43354780  0.66709560  0.91905640  1
  O  O2195  1  0.43354780  0.86709560  0.11905640  1
  O  O2196  1  0.43354780  0.86709560  0.31905640  1
  O  O2197  1  0.43354780  0.86709560  0.51905640  1
  O  O2198  1  0.43354780  0.86709560  0.71905640  1
  O  O2199  1  0.43354780  0.86709560  0.91905640  1
  O  O2200  1  0.63354780  0.06709560  0.11905640  1
  O  O2201  1  0.63354780  0.06709560  0.31905640  1
  O  O2202  1  0.63354780  0.06709560  0.51905640  1
  O  O2203  1  0.63354780  0.06709560  0.71905640  1
  O  O2204  1  0.63354780  0.06709560  0.91905640  1
  O  O2205  1  0.63354780  0.26709560  0.11905640  1
  O  O2206  1  0.63354780  0.26709560  0.31905640  1
  O  O2207  1  0.63354780  0.26709560  0.51905640  1
  O  O2208  1  0.63354780  0.26709560  0.71905640  1
  O  O2209  1  0.63354780  0.26709560  0.91905640  1
  O  O2210  1  0.63354780  0.46709560  0.11905640  1
  O  O2211  1  0.63354780  0.46709560  0.31905640  1
  O  O2212  1  0.63354780  0.46709560  0.51905640  1
  O  O2213  1  0.63354780  0.46709560  0.71905640  1
  O  O2214  1  0.63354780  0.46709560  0.91905640  1
  O  O2215  1  0.63354780  0.66709560  0.11905640  1
  O  O2216  1  0.63354780  0.66709560  0.31905640  1
  O  O2217  1  0.63354780  0.66709560  0.51905640  1
  O  O2218  1  0.63354780  0.66709560  0.71905640  1
  O  O2219  1  0.63354780  0.66709560  0.91905640  1
  O  O2220  1  0.63354780  0.86709560  0.11905640  1
  O  O2221  1  0.63354780  0.86709560  0.31905640  1
  O  O2222  1  0.63354780  0.86709560  0.51905640  1
  O  O2223  1  0.63354780  0.86709560  0.71905640  1
  O  O2224  1  0.63354780  0.86709560  0.91905640  1
  O  O2225  1  0.83354780  0.06709560  0.11905640  1
  O  O2226  1  0.83354780  0.06709560  0.31905640  1
  O  O2227  1  0.83354780  0.06709560  0.51905640  1
  O  O2228  1  0.83354780  0.06709560  0.71905640  1
  O  O2229  1  0.83354780  0.06709560  0.91905640  1
  O  O2230  1  0.83354780  0.26709560  0.11905640  1
  O  O2231  1  0.83354780  0.26709560  0.31905640  1
  O  O2232  1  0.83354780  0.26709560  0.51905640  1
  O  O2233  1  0.83354780  0.26709560  0.71905640  1
  O  O2234  1  0.83354780  0.26709560  0.91905640  1
  O  O2235  1  0.83354780  0.46709560  0.11905640  1
  O  O2236  1  0.83354780  0.46709560  0.31905640  1
  O  O2237  1  0.83354780  0.46709560  0.51905640  1
  O  O2238  1  0.83354780  0.46709560  0.71905640  1
  O  O2239  1  0.83354780  0.46709560  0.91905640  1
  O  O2240  1  0.83354780  0.66709560  0.11905640  1
  O  O2241  1  0.83354780  0.66709560  0.31905640  1
  O  O2242  1  0.83354780  0.66709560  0.51905640  1
  O  O2243  1  0.83354780  0.66709560  0.71905640  1
  O  O2244  1  0.83354780  0.66709560  0.91905640  1
  O  O2245  1  0.83354780  0.86709560  0.11905640  1
  O  O2246  1  0.83354780  0.86709560  0.31905640  1
  O  O2247  1  0.83354780  0.86709560  0.51905640  1
  O  O2248  1  0.83354780  0.86709560  0.71905640  1
  O  O2249  1  0.83354780  0.86709560  0.91905640  1
  O  O2250  1  0.09633200  0.19266420  0.06941540  1
  O  O2251  1  0.09633200  0.19266420  0.26941540  1
  O  O2252  1  0.09633200  0.19266420  0.46941540  1
  O  O2253  1  0.09633200  0.19266420  0.66941540  1
  O  O2254  1  0.09633200  0.19266420  0.86941540  1
  O  O2255  1  0.09633200  0.39266420  0.06941540  1
  O  O2256  1  0.09633200  0.39266420  0.26941540  1
  O  O2257  1  0.09633200  0.39266420  0.46941540  1
  O  O2258  1  0.09633200  0.39266420  0.66941540  1
  O  O2259  1  0.09633200  0.39266420  0.86941540  1
  O  O2260  1  0.09633200  0.59266420  0.06941540  1
  O  O2261  1  0.09633200  0.59266420  0.26941540  1
  O  O2262  1  0.09633200  0.59266420  0.46941540  1
  O  O2263  1  0.09633200  0.59266420  0.66941540  1
  O  O2264  1  0.09633200  0.59266420  0.86941540  1
  O  O2265  1  0.09633200  0.79266420  0.06941540  1
  O  O2266  1  0.09633200  0.79266420  0.26941540  1
  O  O2267  1  0.09633200  0.79266420  0.46941540  1
  O  O2268  1  0.09633200  0.79266420  0.66941540  1
  O  O2269  1  0.09633200  0.79266420  0.86941540  1
  O  O2270  1  0.09633200  0.99266420  0.06941540  1
  O  O2271  1  0.09633200  0.99266420  0.26941540  1
  O  O2272  1  0.09633200  0.99266420  0.46941540  1
  O  O2273  1  0.09633200  0.99266420  0.66941540  1
  O  O2274  1  0.09633200  0.99266420  0.86941540  1
  O  O2275  1  0.29633200  0.19266420  0.06941540  1
  O  O2276  1  0.29633200  0.19266420  0.26941540  1
  O  O2277  1  0.29633200  0.19266420  0.46941540  1
  O  O2278  1  0.29633200  0.19266420  0.66941540  1
  O  O2279  1  0.29633200  0.19266420  0.86941540  1
  O  O2280  1  0.29633200  0.39266420  0.06941540  1
  O  O2281  1  0.29633200  0.39266420  0.26941540  1
  O  O2282  1  0.29633200  0.39266420  0.46941540  1
  O  O2283  1  0.29633200  0.39266420  0.66941540  1
  O  O2284  1  0.29633200  0.39266420  0.86941540  1
  O  O2285  1  0.29633200  0.59266420  0.06941540  1
  O  O2286  1  0.29633200  0.59266420  0.26941540  1
  O  O2287  1  0.29633200  0.59266420  0.46941540  1
  O  O2288  1  0.29633200  0.59266420  0.66941540  1
  O  O2289  1  0.29633200  0.59266420  0.86941540  1
  O  O2290  1  0.29633200  0.79266420  0.06941540  1
  O  O2291  1  0.29633200  0.79266420  0.26941540  1
  O  O2292  1  0.29633200  0.79266420  0.46941540  1
  O  O2293  1  0.29633200  0.79266420  0.66941540  1
  O  O2294  1  0.29633200  0.79266420  0.86941540  1
  O  O2295  1  0.29633200  0.99266420  0.06941540  1
  O  O2296  1  0.29633200  0.99266420  0.26941540  1
  O  O2297  1  0.29633200  0.99266420  0.46941540  1
  O  O2298  1  0.29633200  0.99266420  0.66941540  1
  O  O2299  1  0.29633200  0.99266420  0.86941540  1
  O  O2300  1  0.49633200  0.19266420  0.06941540  1
  O  O2301  1  0.49633200  0.19266420  0.26941540  1
  O  O2302  1  0.49633200  0.19266420  0.46941540  1
  O  O2303  1  0.49633200  0.19266420  0.66941540  1
  O  O2304  1  0.49633200  0.19266420  0.86941540  1
  O  O2305  1  0.49633200  0.39266420  0.06941540  1
  O  O2306  1  0.49633200  0.39266420  0.26941540  1
  O  O2307  1  0.49633200  0.39266420  0.46941540  1
  O  O2308  1  0.49633200  0.39266420  0.66941540  1
  O  O2309  1  0.49633200  0.39266420  0.86941540  1
  O  O2310  1  0.49633200  0.59266420  0.06941540  1
  O  O2311  1  0.49633200  0.59266420  0.26941540  1
  O  O2312  1  0.49633200  0.59266420  0.46941540  1
  O  O2313  1  0.49633200  0.59266420  0.66941540  1
  O  O2314  1  0.49633200  0.59266420  0.86941540  1
  O  O2315  1  0.49633200  0.79266420  0.06941540  1
  O  O2316  1  0.49633200  0.79266420  0.26941540  1
  O  O2317  1  0.49633200  0.79266420  0.46941540  1
  O  O2318  1  0.49633200  0.79266420  0.66941540  1
  O  O2319  1  0.49633200  0.79266420  0.86941540  1
  O  O2320  1  0.49633200  0.99266420  0.06941540  1
  O  O2321  1  0.49633200  0.99266420  0.26941540  1
  O  O2322  1  0.49633200  0.99266420  0.46941540  1
  O  O2323  1  0.49633200  0.99266420  0.66941540  1
  O  O2324  1  0.49633200  0.99266420  0.86941540  1
  O  O2325  1  0.69633200  0.19266420  0.06941540  1
  O  O2326  1  0.69633200  0.19266420  0.26941540  1
  O  O2327  1  0.69633200  0.19266420  0.46941540  1
  O  O2328  1  0.69633200  0.19266420  0.66941540  1
  O  O2329  1  0.69633200  0.19266420  0.86941540  1
  O  O2330  1  0.69633200  0.39266420  0.06941540  1
  O  O2331  1  0.69633200  0.39266420  0.26941540  1
  O  O2332  1  0.69633200  0.39266420  0.46941540  1
  O  O2333  1  0.69633200  0.39266420  0.66941540  1
  O  O2334  1  0.69633200  0.39266420  0.86941540  1
  O  O2335  1  0.69633200  0.59266420  0.06941540  1
  O  O2336  1  0.69633200  0.59266420  0.26941540  1
  O  O2337  1  0.69633200  0.59266420  0.46941540  1
  O  O2338  1  0.69633200  0.59266420  0.66941540  1
  O  O2339  1  0.69633200  0.59266420  0.86941540  1
  O  O2340  1  0.69633200  0.79266420  0.06941540  1
  O  O2341  1  0.69633200  0.79266420  0.26941540  1
  O  O2342  1  0.69633200  0.79266420  0.46941540  1
  O  O2343  1  0.69633200  0.79266420  0.66941540  1
  O  O2344  1  0.69633200  0.79266420  0.86941540  1
  O  O2345  1  0.69633200  0.99266420  0.06941540  1
  O  O2346  1  0.69633200  0.99266420  0.26941540  1
  O  O2347  1  0.69633200  0.99266420  0.46941540  1
  O  O2348  1  0.69633200  0.99266420  0.66941540  1
  O  O2349  1  0.69633200  0.99266420  0.86941540  1
  O  O2350  1  0.89633200  0.19266420  0.06941540  1
  O  O2351  1  0.89633200  0.19266420  0.26941540  1
  O  O2352  1  0.89633200  0.19266420  0.46941540  1
  O  O2353  1  0.89633200  0.19266420  0.66941540  1
  O  O2354  1  0.89633200  0.19266420  0.86941540  1
  O  O2355  1  0.89633200  0.39266420  0.06941540  1
  O  O2356  1  0.89633200  0.39266420  0.26941540  1
  O  O2357  1  0.89633200  0.39266420  0.46941540  1
  O  O2358  1  0.89633200  0.39266420  0.66941540  1
  O  O2359  1  0.89633200  0.39266420  0.86941540  1
  O  O2360  1  0.89633200  0.59266420  0.06941540  1
  O  O2361  1  0.89633200  0.59266420  0.26941540  1
  O  O2362  1  0.89633200  0.59266420  0.46941540  1
  O  O2363  1  0.89633200  0.59266420  0.66941540  1
  O  O2364  1  0.89633200  0.59266420  0.86941540  1
  O  O2365  1  0.89633200  0.79266420  0.06941540  1
  O  O2366  1  0.89633200  0.79266420  0.26941540  1
  O  O2367  1  0.89633200  0.79266420  0.46941540  1
  O  O2368  1  0.89633200  0.79266420  0.66941540  1
  O  O2369  1  0.89633200  0.79266420  0.86941540  1
  O  O2370  1  0.89633200  0.99266420  0.06941540  1
  O  O2371  1  0.89633200  0.99266420  0.26941540  1
  O  O2372  1  0.89633200  0.99266420  0.46941540  1
  O  O2373  1  0.89633200  0.99266420  0.66941540  1
  O  O2374  1  0.89633200  0.99266420  0.86941540  1
  O  O2375  1  0.09633200  0.10366800  0.06941540  1
  O  O2376  1  0.09633200  0.10366800  0.26941540  1
  O  O2377  1  0.09633200  0.10366800  0.46941540  1
  O  O2378  1  0.09633200  0.10366800  0.66941540  1
  O  O2379  1  0.09633200  0.10366800  0.86941540  1
  O  O2380  1  0.09633200  0.30366800  0.06941540  1
  O  O2381  1  0.09633200  0.30366800  0.26941540  1
  O  O2382  1  0.09633200  0.30366800  0.46941540  1
  O  O2383  1  0.09633200  0.30366800  0.66941540  1
  O  O2384  1  0.09633200  0.30366800  0.86941540  1
  O  O2385  1  0.09633200  0.50366800  0.06941540  1
  O  O2386  1  0.09633200  0.50366800  0.26941540  1
  O  O2387  1  0.09633200  0.50366800  0.46941540  1
  O  O2388  1  0.09633200  0.50366800  0.66941540  1
  O  O2389  1  0.09633200  0.50366800  0.86941540  1
  O  O2390  1  0.09633200  0.70366800  0.06941540  1
  O  O2391  1  0.09633200  0.70366800  0.26941540  1
  O  O2392  1  0.09633200  0.70366800  0.46941540  1
  O  O2393  1  0.09633200  0.70366800  0.66941540  1
  O  O2394  1  0.09633200  0.70366800  0.86941540  1
  O  O2395  1  0.09633200  0.90366800  0.06941540  1
  O  O2396  1  0.09633200  0.90366800  0.26941540  1
  O  O2397  1  0.09633200  0.90366800  0.46941540  1
  O  O2398  1  0.09633200  0.90366800  0.66941540  1
  O  O2399  1  0.09633200  0.90366800  0.86941540  1
  O  O2400  1  0.29633200  0.10366800  0.06941540  1
  O  O2401  1  0.29633200  0.10366800  0.26941540  1
  O  O2402  1  0.29633200  0.10366800  0.46941540  1
  O  O2403  1  0.29633200  0.10366800  0.66941540  1
  O  O2404  1  0.29633200  0.10366800  0.86941540  1
  O  O2405  1  0.29633200  0.30366800  0.06941540  1
  O  O2406  1  0.29633200  0.30366800  0.26941540  1
  O  O2407  1  0.29633200  0.30366800  0.46941540  1
  O  O2408  1  0.29633200  0.30366800  0.66941540  1
  O  O2409  1  0.29633200  0.30366800  0.86941540  1
  O  O2410  1  0.29633200  0.50366800  0.06941540  1
  O  O2411  1  0.29633200  0.50366800  0.26941540  1
  O  O2412  1  0.29633200  0.50366800  0.46941540  1
  O  O2413  1  0.29633200  0.50366800  0.66941540  1
  O  O2414  1  0.29633200  0.50366800  0.86941540  1
  O  O2415  1  0.29633200  0.70366800  0.06941540  1
  O  O2416  1  0.29633200  0.70366800  0.26941540  1
  O  O2417  1  0.29633200  0.70366800  0.46941540  1
  O  O2418  1  0.29633200  0.70366800  0.66941540  1
  O  O2419  1  0.29633200  0.70366800  0.86941540  1
  O  O2420  1  0.29633200  0.90366800  0.06941540  1
  O  O2421  1  0.29633200  0.90366800  0.26941540  1
  O  O2422  1  0.29633200  0.90366800  0.46941540  1
  O  O2423  1  0.29633200  0.90366800  0.66941540  1
  O  O2424  1  0.29633200  0.90366800  0.86941540  1
  O  O2425  1  0.49633200  0.10366800  0.06941540  1
  O  O2426  1  0.49633200  0.10366800  0.26941540  1
  O  O2427  1  0.49633200  0.10366800  0.46941540  1
  O  O2428  1  0.49633200  0.10366800  0.66941540  1
  O  O2429  1  0.49633200  0.10366800  0.86941540  1
  O  O2430  1  0.49633200  0.30366800  0.06941540  1
  O  O2431  1  0.49633200  0.30366800  0.26941540  1
  O  O2432  1  0.49633200  0.30366800  0.46941540  1
  O  O2433  1  0.49633200  0.30366800  0.66941540  1
  O  O2434  1  0.49633200  0.30366800  0.86941540  1
  O  O2435  1  0.49633200  0.50366800  0.06941540  1
  O  O2436  1  0.49633200  0.50366800  0.26941540  1
  O  O2437  1  0.49633200  0.50366800  0.46941540  1
  O  O2438  1  0.49633200  0.50366800  0.66941540  1
  O  O2439  1  0.49633200  0.50366800  0.86941540  1
  O  O2440  1  0.49633200  0.70366800  0.06941540  1
  O  O2441  1  0.49633200  0.70366800  0.26941540  1
  O  O2442  1  0.49633200  0.70366800  0.46941540  1
  O  O2443  1  0.49633200  0.70366800  0.66941540  1
  O  O2444  1  0.49633200  0.70366800  0.86941540  1
  O  O2445  1  0.49633200  0.90366800  0.06941540  1
  O  O2446  1  0.49633200  0.90366800  0.26941540  1
  O  O2447  1  0.49633200  0.90366800  0.46941540  1
  O  O2448  1  0.49633200  0.90366800  0.66941540  1
  O  O2449  1  0.49633200  0.90366800  0.86941540  1
  O  O2450  1  0.69633200  0.10366800  0.06941540  1
  O  O2451  1  0.69633200  0.10366800  0.26941540  1
  O  O2452  1  0.69633200  0.10366800  0.46941540  1
  O  O2453  1  0.69633200  0.10366800  0.66941540  1
  O  O2454  1  0.69633200  0.10366800  0.86941540  1
  O  O2455  1  0.69633200  0.30366800  0.06941540  1
  O  O2456  1  0.69633200  0.30366800  0.26941540  1
  O  O2457  1  0.69633200  0.30366800  0.46941540  1
  O  O2458  1  0.69633200  0.30366800  0.66941540  1
  O  O2459  1  0.69633200  0.30366800  0.86941540  1
  O  O2460  1  0.69633200  0.50366800  0.06941540  1
  O  O2461  1  0.69633200  0.50366800  0.26941540  1
  O  O2462  1  0.69633200  0.50366800  0.46941540  1
  O  O2463  1  0.69633200  0.50366800  0.66941540  1
  O  O2464  1  0.69633200  0.50366800  0.86941540  1
  O  O2465  1  0.69633200  0.70366800  0.06941540  1
  O  O2466  1  0.69633200  0.70366800  0.26941540  1
  O  O2467  1  0.69633200  0.70366800  0.46941540  1
  O  O2468  1  0.69633200  0.70366800  0.66941540  1
  O  O2469  1  0.69633200  0.70366800  0.86941540  1
  O  O2470  1  0.69633200  0.90366800  0.06941540  1
  O  O2471  1  0.69633200  0.90366800  0.26941540  1
  O  O2472  1  0.69633200  0.90366800  0.46941540  1
  O  O2473  1  0.69633200  0.90366800  0.66941540  1
  O  O2474  1  0.69633200  0.90366800  0.86941540  1
  O  O2475  1  0.89633200  0.10366800  0.06941540  1
  O  O2476  1  0.89633200  0.10366800  0.26941540  1
  O  O2477  1  0.89633200  0.10366800  0.46941540  1
  O  O2478  1  0.89633200  0.10366800  0.66941540  1
  O  O2479  1  0.89633200  0.10366800  0.86941540  1
  O  O2480  1  0.89633200  0.30366800  0.06941540  1
  O  O2481  1  0.89633200  0.30366800  0.26941540  1
  O  O2482  1  0.89633200  0.30366800  0.46941540  1
  O  O2483  1  0.89633200  0.30366800  0.66941540  1
  O  O2484  1  0.89633200  0.30366800  0.86941540  1
  O  O2485  1  0.89633200  0.50366800  0.06941540  1
  O  O2486  1  0.89633200  0.50366800  0.26941540  1
  O  O2487  1  0.89633200  0.50366800  0.46941540  1
  O  O2488  1  0.89633200  0.50366800  0.66941540  1
  O  O2489  1  0.89633200  0.50366800  0.86941540  1
  O  O2490  1  0.89633200  0.70366800  0.06941540  1
  O  O2491  1  0.89633200  0.70366800  0.26941540  1
  O  O2492  1  0.89633200  0.70366800  0.46941540  1
  O  O2493  1  0.89633200  0.70366800  0.66941540  1
  O  O2494  1  0.89633200  0.70366800  0.86941540  1
  O  O2495  1  0.89633200  0.90366800  0.06941540  1
  O  O2496  1  0.89633200  0.90366800  0.26941540  1
  O  O2497  1  0.89633200  0.90366800  0.46941540  1
  O  O2498  1  0.89633200  0.90366800  0.66941540  1
  O  O2499  1  0.89633200  0.90366800  0.86941540  1
  O  O2500  1  0.06709560  0.03354780  0.01905640  1
  O  O2501  1  0.06709560  0.03354780  0.21905640  1
  O  O2502  1  0.06709560  0.03354780  0.41905640  1
  O  O2503  1  0.06709560  0.03354780  0.61905640  1
  O  O2504  1  0.06709560  0.03354780  0.81905640  1
  O  O2505  1  0.06709560  0.23354780  0.01905640  1
  O  O2506  1  0.06709560  0.23354780  0.21905640  1
  O  O2507  1  0.06709560  0.23354780  0.41905640  1
  O  O2508  1  0.06709560  0.23354780  0.61905640  1
  O  O2509  1  0.06709560  0.23354780  0.81905640  1
  O  O2510  1  0.06709560  0.43354780  0.01905640  1
  O  O2511  1  0.06709560  0.43354780  0.21905640  1
  O  O2512  1  0.06709560  0.43354780  0.41905640  1
  O  O2513  1  0.06709560  0.43354780  0.61905640  1
  O  O2514  1  0.06709560  0.43354780  0.81905640  1
  O  O2515  1  0.06709560  0.63354780  0.01905640  1
  O  O2516  1  0.06709560  0.63354780  0.21905640  1
  O  O2517  1  0.06709560  0.63354780  0.41905640  1
  O  O2518  1  0.06709560  0.63354780  0.61905640  1
  O  O2519  1  0.06709560  0.63354780  0.81905640  1
  O  O2520  1  0.06709560  0.83354780  0.01905640  1
  O  O2521  1  0.06709560  0.83354780  0.21905640  1
  O  O2522  1  0.06709560  0.83354780  0.41905640  1
  O  O2523  1  0.06709560  0.83354780  0.61905640  1
  O  O2524  1  0.06709560  0.83354780  0.81905640  1
  O  O2525  1  0.26709560  0.03354780  0.01905640  1
  O  O2526  1  0.26709560  0.03354780  0.21905640  1
  O  O2527  1  0.26709560  0.03354780  0.41905640  1
  O  O2528  1  0.26709560  0.03354780  0.61905640  1
  O  O2529  1  0.26709560  0.03354780  0.81905640  1
  O  O2530  1  0.26709560  0.23354780  0.01905640  1
  O  O2531  1  0.26709560  0.23354780  0.21905640  1
  O  O2532  1  0.26709560  0.23354780  0.41905640  1
  O  O2533  1  0.26709560  0.23354780  0.61905640  1
  O  O2534  1  0.26709560  0.23354780  0.81905640  1
  O  O2535  1  0.26709560  0.43354780  0.01905640  1
  O  O2536  1  0.26709560  0.43354780  0.21905640  1
  O  O2537  1  0.26709560  0.43354780  0.41905640  1
  O  O2538  1  0.26709560  0.43354780  0.61905640  1
  O  O2539  1  0.26709560  0.43354780  0.81905640  1
  O  O2540  1  0.26709560  0.63354780  0.01905640  1
  O  O2541  1  0.26709560  0.63354780  0.21905640  1
  O  O2542  1  0.26709560  0.63354780  0.41905640  1
  O  O2543  1  0.26709560  0.63354780  0.61905640  1
  O  O2544  1  0.26709560  0.63354780  0.81905640  1
  O  O2545  1  0.26709560  0.83354780  0.01905640  1
  O  O2546  1  0.26709560  0.83354780  0.21905640  1
  O  O2547  1  0.26709560  0.83354780  0.41905640  1
  O  O2548  1  0.26709560  0.83354780  0.61905640  1
  O  O2549  1  0.26709560  0.83354780  0.81905640  1
  O  O2550  1  0.46709560  0.03354780  0.01905640  1
  O  O2551  1  0.46709560  0.03354780  0.21905640  1
  O  O2552  1  0.46709560  0.03354780  0.41905640  1
  O  O2553  1  0.46709560  0.03354780  0.61905640  1
  O  O2554  1  0.46709560  0.03354780  0.81905640  1
  O  O2555  1  0.46709560  0.23354780  0.01905640  1
  O  O2556  1  0.46709560  0.23354780  0.21905640  1
  O  O2557  1  0.46709560  0.23354780  0.41905640  1
  O  O2558  1  0.46709560  0.23354780  0.61905640  1
  O  O2559  1  0.46709560  0.23354780  0.81905640  1
  O  O2560  1  0.46709560  0.43354780  0.01905640  1
  O  O2561  1  0.46709560  0.43354780  0.21905640  1
  O  O2562  1  0.46709560  0.43354780  0.41905640  1
  O  O2563  1  0.46709560  0.43354780  0.61905640  1
  O  O2564  1  0.46709560  0.43354780  0.81905640  1
  O  O2565  1  0.46709560  0.63354780  0.01905640  1
  O  O2566  1  0.46709560  0.63354780  0.21905640  1
  O  O2567  1  0.46709560  0.63354780  0.41905640  1
  O  O2568  1  0.46709560  0.63354780  0.61905640  1
  O  O2569  1  0.46709560  0.63354780  0.81905640  1
  O  O2570  1  0.46709560  0.83354780  0.01905640  1
  O  O2571  1  0.46709560  0.83354780  0.21905640  1
  O  O2572  1  0.46709560  0.83354780  0.41905640  1
  O  O2573  1  0.46709560  0.83354780  0.61905640  1
  O  O2574  1  0.46709560  0.83354780  0.81905640  1
  O  O2575  1  0.66709560  0.03354780  0.01905640  1
  O  O2576  1  0.66709560  0.03354780  0.21905640  1
  O  O2577  1  0.66709560  0.03354780  0.41905640  1
  O  O2578  1  0.66709560  0.03354780  0.61905640  1
  O  O2579  1  0.66709560  0.03354780  0.81905640  1
  O  O2580  1  0.66709560  0.23354780  0.01905640  1
  O  O2581  1  0.66709560  0.23354780  0.21905640  1
  O  O2582  1  0.66709560  0.23354780  0.41905640  1
  O  O2583  1  0.66709560  0.23354780  0.61905640  1
  O  O2584  1  0.66709560  0.23354780  0.81905640  1
  O  O2585  1  0.66709560  0.43354780  0.01905640  1
  O  O2586  1  0.66709560  0.43354780  0.21905640  1
  O  O2587  1  0.66709560  0.43354780  0.41905640  1
  O  O2588  1  0.66709560  0.43354780  0.61905640  1
  O  O2589  1  0.66709560  0.43354780  0.81905640  1
  O  O2590  1  0.66709560  0.63354780  0.01905640  1
  O  O2591  1  0.66709560  0.63354780  0.21905640  1
  O  O2592  1  0.66709560  0.63354780  0.41905640  1
  O  O2593  1  0.66709560  0.63354780  0.61905640  1
  O  O2594  1  0.66709560  0.63354780  0.81905640  1
  O  O2595  1  0.66709560  0.83354780  0.01905640  1
  O  O2596  1  0.66709560  0.83354780  0.21905640  1
  O  O2597  1  0.66709560  0.83354780  0.41905640  1
  O  O2598  1  0.66709560  0.83354780  0.61905640  1
  O  O2599  1  0.66709560  0.83354780  0.81905640  1
  O  O2600  1  0.86709560  0.03354780  0.01905640  1
  O  O2601  1  0.86709560  0.03354780  0.21905640  1
  O  O2602  1  0.86709560  0.03354780  0.41905640  1
  O  O2603  1  0.86709560  0.03354780  0.61905640  1
  O  O2604  1  0.86709560  0.03354780  0.81905640  1
  O  O2605  1  0.86709560  0.23354780  0.01905640  1
  O  O2606  1  0.86709560  0.23354780  0.21905640  1
  O  O2607  1  0.86709560  0.23354780  0.41905640  1
  O  O2608  1  0.86709560  0.23354780  0.61905640  1
  O  O2609  1  0.86709560  0.23354780  0.81905640  1
  O  O2610  1  0.86709560  0.43354780  0.01905640  1
  O  O2611  1  0.86709560  0.43354780  0.21905640  1
  O  O2612  1  0.86709560  0.43354780  0.41905640  1
  O  O2613  1  0.86709560  0.43354780  0.61905640  1
  O  O2614  1  0.86709560  0.43354780  0.81905640  1
  O  O2615  1  0.86709560  0.63354780  0.01905640  1
  O  O2616  1  0.86709560  0.63354780  0.21905640  1
  O  O2617  1  0.86709560  0.63354780  0.41905640  1
  O  O2618  1  0.86709560  0.63354780  0.61905640  1
  O  O2619  1  0.86709560  0.63354780  0.81905640  1
  O  O2620  1  0.86709560  0.83354780  0.01905640  1
  O  O2621  1  0.86709560  0.83354780  0.21905640  1
  O  O2622  1  0.86709560  0.83354780  0.41905640  1
  O  O2623  1  0.86709560  0.83354780  0.61905640  1
  O  O2624  1  0.86709560  0.83354780  0.81905640  1
  O  O2625  1  0.13290440  0.16645220  0.11905640  1
  O  O2626  1  0.13290440  0.16645220  0.31905640  1
  O  O2627  1  0.13290440  0.16645220  0.51905640  1
  O  O2628  1  0.13290440  0.16645220  0.71905640  1
  O  O2629  1  0.13290440  0.16645220  0.91905640  1
  O  O2630  1  0.13290440  0.36645220  0.11905640  1
  O  O2631  1  0.13290440  0.36645220  0.31905640  1
  O  O2632  1  0.13290440  0.36645220  0.51905640  1
  O  O2633  1  0.13290440  0.36645220  0.71905640  1
  O  O2634  1  0.13290440  0.36645220  0.91905640  1
  O  O2635  1  0.13290440  0.56645220  0.11905640  1
  O  O2636  1  0.13290440  0.56645220  0.31905640  1
  O  O2637  1  0.13290440  0.56645220  0.51905640  1
  O  O2638  1  0.13290440  0.56645220  0.71905640  1
  O  O2639  1  0.13290440  0.56645220  0.91905640  1
  O  O2640  1  0.13290440  0.76645220  0.11905640  1
  O  O2641  1  0.13290440  0.76645220  0.31905640  1
  O  O2642  1  0.13290440  0.76645220  0.51905640  1
  O  O2643  1  0.13290440  0.76645220  0.71905640  1
  O  O2644  1  0.13290440  0.76645220  0.91905640  1
  O  O2645  1  0.13290440  0.96645220  0.11905640  1
  O  O2646  1  0.13290440  0.96645220  0.31905640  1
  O  O2647  1  0.13290440  0.96645220  0.51905640  1
  O  O2648  1  0.13290440  0.96645220  0.71905640  1
  O  O2649  1  0.13290440  0.96645220  0.91905640  1
  O  O2650  1  0.33290440  0.16645220  0.11905640  1
  O  O2651  1  0.33290440  0.16645220  0.31905640  1
  O  O2652  1  0.33290440  0.16645220  0.51905640  1
  O  O2653  1  0.33290440  0.16645220  0.71905640  1
  O  O2654  1  0.33290440  0.16645220  0.91905640  1
  O  O2655  1  0.33290440  0.36645220  0.11905640  1
  O  O2656  1  0.33290440  0.36645220  0.31905640  1
  O  O2657  1  0.33290440  0.36645220  0.51905640  1
  O  O2658  1  0.33290440  0.36645220  0.71905640  1
  O  O2659  1  0.33290440  0.36645220  0.91905640  1
  O  O2660  1  0.33290440  0.56645220  0.11905640  1
  O  O2661  1  0.33290440  0.56645220  0.31905640  1
  O  O2662  1  0.33290440  0.56645220  0.51905640  1
  O  O2663  1  0.33290440  0.56645220  0.71905640  1
  O  O2664  1  0.33290440  0.56645220  0.91905640  1
  O  O2665  1  0.33290440  0.76645220  0.11905640  1
  O  O2666  1  0.33290440  0.76645220  0.31905640  1
  O  O2667  1  0.33290440  0.76645220  0.51905640  1
  O  O2668  1  0.33290440  0.76645220  0.71905640  1
  O  O2669  1  0.33290440  0.76645220  0.91905640  1
  O  O2670  1  0.33290440  0.96645220  0.11905640  1
  O  O2671  1  0.33290440  0.96645220  0.31905640  1
  O  O2672  1  0.33290440  0.96645220  0.51905640  1
  O  O2673  1  0.33290440  0.96645220  0.71905640  1
  O  O2674  1  0.33290440  0.96645220  0.91905640  1
  O  O2675  1  0.53290440  0.16645220  0.11905640  1
  O  O2676  1  0.53290440  0.16645220  0.31905640  1
  O  O2677  1  0.53290440  0.16645220  0.51905640  1
  O  O2678  1  0.53290440  0.16645220  0.71905640  1
  O  O2679  1  0.53290440  0.16645220  0.91905640  1
  O  O2680  1  0.53290440  0.36645220  0.11905640  1
  O  O2681  1  0.53290440  0.36645220  0.31905640  1
  O  O2682  1  0.53290440  0.36645220  0.51905640  1
  O  O2683  1  0.53290440  0.36645220  0.71905640  1
  O  O2684  1  0.53290440  0.36645220  0.91905640  1
  O  O2685  1  0.53290440  0.56645220  0.11905640  1
  O  O2686  1  0.53290440  0.56645220  0.31905640  1
  O  O2687  1  0.53290440  0.56645220  0.51905640  1
  O  O2688  1  0.53290440  0.56645220  0.71905640  1
  O  O2689  1  0.53290440  0.56645220  0.91905640  1
  O  O2690  1  0.53290440  0.76645220  0.11905640  1
  O  O2691  1  0.53290440  0.76645220  0.31905640  1
  O  O2692  1  0.53290440  0.76645220  0.51905640  1
  O  O2693  1  0.53290440  0.76645220  0.71905640  1
  O  O2694  1  0.53290440  0.76645220  0.91905640  1
  O  O2695  1  0.53290440  0.96645220  0.11905640  1
  O  O2696  1  0.53290440  0.96645220  0.31905640  1
  O  O2697  1  0.53290440  0.96645220  0.51905640  1
  O  O2698  1  0.53290440  0.96645220  0.71905640  1
  O  O2699  1  0.53290440  0.96645220  0.91905640  1
  O  O2700  1  0.73290440  0.16645220  0.11905640  1
  O  O2701  1  0.73290440  0.16645220  0.31905640  1
  O  O2702  1  0.73290440  0.16645220  0.51905640  1
  O  O2703  1  0.73290440  0.16645220  0.71905640  1
  O  O2704  1  0.73290440  0.16645220  0.91905640  1
  O  O2705  1  0.73290440  0.36645220  0.11905640  1
  O  O2706  1  0.73290440  0.36645220  0.31905640  1
  O  O2707  1  0.73290440  0.36645220  0.51905640  1
  O  O2708  1  0.73290440  0.36645220  0.71905640  1
  O  O2709  1  0.73290440  0.36645220  0.91905640  1
  O  O2710  1  0.73290440  0.56645220  0.11905640  1
  O  O2711  1  0.73290440  0.56645220  0.31905640  1
  O  O2712  1  0.73290440  0.56645220  0.51905640  1
  O  O2713  1  0.73290440  0.56645220  0.71905640  1
  O  O2714  1  0.73290440  0.56645220  0.91905640  1
  O  O2715  1  0.73290440  0.76645220  0.11905640  1
  O  O2716  1  0.73290440  0.76645220  0.31905640  1
  O  O2717  1  0.73290440  0.76645220  0.51905640  1
  O  O2718  1  0.73290440  0.76645220  0.71905640  1
  O  O2719  1  0.73290440  0.76645220  0.91905640  1
  O  O2720  1  0.73290440  0.96645220  0.11905640  1
  O  O2721  1  0.73290440  0.96645220  0.31905640  1
  O  O2722  1  0.73290440  0.96645220  0.51905640  1
  O  O2723  1  0.73290440  0.96645220  0.71905640  1
  O  O2724  1  0.73290440  0.96645220  0.91905640  1
  O  O2725  1  0.93290440  0.16645220  0.11905640  1
  O  O2726  1  0.93290440  0.16645220  0.31905640  1
  O  O2727  1  0.93290440  0.16645220  0.51905640  1
  O  O2728  1  0.93290440  0.16645220  0.71905640  1
  O  O2729  1  0.93290440  0.16645220  0.91905640  1
  O  O2730  1  0.93290440  0.36645220  0.11905640  1
  O  O2731  1  0.93290440  0.36645220  0.31905640  1
  O  O2732  1  0.93290440  0.36645220  0.51905640  1
  O  O2733  1  0.93290440  0.36645220  0.71905640  1
  O  O2734  1  0.93290440  0.36645220  0.91905640  1
  O  O2735  1  0.93290440  0.56645220  0.11905640  1
  O  O2736  1  0.93290440  0.56645220  0.31905640  1
  O  O2737  1  0.93290440  0.56645220  0.51905640  1
  O  O2738  1  0.93290440  0.56645220  0.71905640  1
  O  O2739  1  0.93290440  0.56645220  0.91905640  1
  O  O2740  1  0.93290440  0.76645220  0.11905640  1
  O  O2741  1  0.93290440  0.76645220  0.31905640  1
  O  O2742  1  0.93290440  0.76645220  0.51905640  1
  O  O2743  1  0.93290440  0.76645220  0.71905640  1
  O  O2744  1  0.93290440  0.76645220  0.91905640  1
  O  O2745  1  0.93290440  0.96645220  0.11905640  1
  O  O2746  1  0.93290440  0.96645220  0.31905640  1
  O  O2747  1  0.93290440  0.96645220  0.51905640  1
  O  O2748  1  0.93290440  0.96645220  0.71905640  1
  O  O2749  1  0.93290440  0.96645220  0.91905640  1
  O  O2750  1  0.10366800  0.09633200  0.16941540  1
  O  O2751  1  0.10366800  0.09633200  0.36941540  1
  O  O2752  1  0.10366800  0.09633200  0.56941540  1
  O  O2753  1  0.10366800  0.09633200  0.76941540  1
  O  O2754  1  0.10366800  0.09633200  0.96941540  1
  O  O2755  1  0.10366800  0.29633200  0.16941540  1
  O  O2756  1  0.10366800  0.29633200  0.36941540  1
  O  O2757  1  0.10366800  0.29633200  0.56941540  1
  O  O2758  1  0.10366800  0.29633200  0.76941540  1
  O  O2759  1  0.10366800  0.29633200  0.96941540  1
  O  O2760  1  0.10366800  0.49633200  0.16941540  1
  O  O2761  1  0.10366800  0.49633200  0.36941540  1
  O  O2762  1  0.10366800  0.49633200  0.56941540  1
  O  O2763  1  0.10366800  0.49633200  0.76941540  1
  O  O2764  1  0.10366800  0.49633200  0.96941540  1
  O  O2765  1  0.10366800  0.69633200  0.16941540  1
  O  O2766  1  0.10366800  0.69633200  0.36941540  1
  O  O2767  1  0.10366800  0.69633200  0.56941540  1
  O  O2768  1  0.10366800  0.69633200  0.76941540  1
  O  O2769  1  0.10366800  0.69633200  0.96941540  1
  O  O2770  1  0.10366800  0.89633200  0.16941540  1
  O  O2771  1  0.10366800  0.89633200  0.36941540  1
  O  O2772  1  0.10366800  0.89633200  0.56941540  1
  O  O2773  1  0.10366800  0.89633200  0.76941540  1
  O  O2774  1  0.10366800  0.89633200  0.96941540  1
  O  O2775  1  0.30366800  0.09633200  0.16941540  1
  O  O2776  1  0.30366800  0.09633200  0.36941540  1
  O  O2777  1  0.30366800  0.09633200  0.56941540  1
  O  O2778  1  0.30366800  0.09633200  0.76941540  1
  O  O2779  1  0.30366800  0.09633200  0.96941540  1
  O  O2780  1  0.30366800  0.29633200  0.16941540  1
  O  O2781  1  0.30366800  0.29633200  0.36941540  1
  O  O2782  1  0.30366800  0.29633200  0.56941540  1
  O  O2783  1  0.30366800  0.29633200  0.76941540  1
  O  O2784  1  0.30366800  0.29633200  0.96941540  1
  O  O2785  1  0.30366800  0.49633200  0.16941540  1
  O  O2786  1  0.30366800  0.49633200  0.36941540  1
  O  O2787  1  0.30366800  0.49633200  0.56941540  1
  O  O2788  1  0.30366800  0.49633200  0.76941540  1
  O  O2789  1  0.30366800  0.49633200  0.96941540  1
  O  O2790  1  0.30366800  0.69633200  0.16941540  1
  O  O2791  1  0.30366800  0.69633200  0.36941540  1
  O  O2792  1  0.30366800  0.69633200  0.56941540  1
  O  O2793  1  0.30366800  0.69633200  0.76941540  1
  O  O2794  1  0.30366800  0.69633200  0.96941540  1
  O  O2795  1  0.30366800  0.89633200  0.16941540  1
  O  O2796  1  0.30366800  0.89633200  0.36941540  1
  O  O2797  1  0.30366800  0.89633200  0.56941540  1
  O  O2798  1  0.30366800  0.89633200  0.76941540  1
  O  O2799  1  0.30366800  0.89633200  0.96941540  1
  O  O2800  1  0.50366800  0.09633200  0.16941540  1
  O  O2801  1  0.50366800  0.09633200  0.36941540  1
  O  O2802  1  0.50366800  0.09633200  0.56941540  1
  O  O2803  1  0.50366800  0.09633200  0.76941540  1
  O  O2804  1  0.50366800  0.09633200  0.96941540  1
  O  O2805  1  0.50366800  0.29633200  0.16941540  1
  O  O2806  1  0.50366800  0.29633200  0.36941540  1
  O  O2807  1  0.50366800  0.29633200  0.56941540  1
  O  O2808  1  0.50366800  0.29633200  0.76941540  1
  O  O2809  1  0.50366800  0.29633200  0.96941540  1
  O  O2810  1  0.50366800  0.49633200  0.16941540  1
  O  O2811  1  0.50366800  0.49633200  0.36941540  1
  O  O2812  1  0.50366800  0.49633200  0.56941540  1
  O  O2813  1  0.50366800  0.49633200  0.76941540  1
  O  O2814  1  0.50366800  0.49633200  0.96941540  1
  O  O2815  1  0.50366800  0.69633200  0.16941540  1
  O  O2816  1  0.50366800  0.69633200  0.36941540  1
  O  O2817  1  0.50366800  0.69633200  0.56941540  1
  O  O2818  1  0.50366800  0.69633200  0.76941540  1
  O  O2819  1  0.50366800  0.69633200  0.96941540  1
  O  O2820  1  0.50366800  0.89633200  0.16941540  1
  O  O2821  1  0.50366800  0.89633200  0.36941540  1
  O  O2822  1  0.50366800  0.89633200  0.56941540  1
  O  O2823  1  0.50366800  0.89633200  0.76941540  1
  O  O2824  1  0.50366800  0.89633200  0.96941540  1
  O  O2825  1  0.70366800  0.09633200  0.16941540  1
  O  O2826  1  0.70366800  0.09633200  0.36941540  1
  O  O2827  1  0.70366800  0.09633200  0.56941540  1
  O  O2828  1  0.70366800  0.09633200  0.76941540  1
  O  O2829  1  0.70366800  0.09633200  0.96941540  1
  O  O2830  1  0.70366800  0.29633200  0.16941540  1
  O  O2831  1  0.70366800  0.29633200  0.36941540  1
  O  O2832  1  0.70366800  0.29633200  0.56941540  1
  O  O2833  1  0.70366800  0.29633200  0.76941540  1
  O  O2834  1  0.70366800  0.29633200  0.96941540  1
  O  O2835  1  0.70366800  0.49633200  0.16941540  1
  O  O2836  1  0.70366800  0.49633200  0.36941540  1
  O  O2837  1  0.70366800  0.49633200  0.56941540  1
  O  O2838  1  0.70366800  0.49633200  0.76941540  1
  O  O2839  1  0.70366800  0.49633200  0.96941540  1
  O  O2840  1  0.70366800  0.69633200  0.16941540  1
  O  O2841  1  0.70366800  0.69633200  0.36941540  1
  O  O2842  1  0.70366800  0.69633200  0.56941540  1
  O  O2843  1  0.70366800  0.69633200  0.76941540  1
  O  O2844  1  0.70366800  0.69633200  0.96941540  1
  O  O2845  1  0.70366800  0.89633200  0.16941540  1
  O  O2846  1  0.70366800  0.89633200  0.36941540  1
  O  O2847  1  0.70366800  0.89633200  0.56941540  1
  O  O2848  1  0.70366800  0.89633200  0.76941540  1
  O  O2849  1  0.70366800  0.89633200  0.96941540  1
  O  O2850  1  0.90366800  0.09633200  0.16941540  1
  O  O2851  1  0.90366800  0.09633200  0.36941540  1
  O  O2852  1  0.90366800  0.09633200  0.56941540  1
  O  O2853  1  0.90366800  0.09633200  0.76941540  1
  O  O2854  1  0.90366800  0.09633200  0.96941540  1
  O  O2855  1  0.90366800  0.29633200  0.16941540  1
  O  O2856  1  0.90366800  0.29633200  0.36941540  1
  O  O2857  1  0.90366800  0.29633200  0.56941540  1
  O  O2858  1  0.90366800  0.29633200  0.76941540  1
  O  O2859  1  0.90366800  0.29633200  0.96941540  1
  O  O2860  1  0.90366800  0.49633200  0.16941540  1
  O  O2861  1  0.90366800  0.49633200  0.36941540  1
  O  O2862  1  0.90366800  0.49633200  0.56941540  1
  O  O2863  1  0.90366800  0.49633200  0.76941540  1
  O  O2864  1  0.90366800  0.49633200  0.96941540  1
  O  O2865  1  0.90366800  0.69633200  0.16941540  1
  O  O2866  1  0.90366800  0.69633200  0.36941540  1
  O  O2867  1  0.90366800  0.69633200  0.56941540  1
  O  O2868  1  0.90366800  0.69633200  0.76941540  1
  O  O2869  1  0.90366800  0.69633200  0.96941540  1
  O  O2870  1  0.90366800  0.89633200  0.16941540  1
  O  O2871  1  0.90366800  0.89633200  0.36941540  1
  O  O2872  1  0.90366800  0.89633200  0.56941540  1
  O  O2873  1  0.90366800  0.89633200  0.76941540  1
  O  O2874  1  0.90366800  0.89633200  0.96941540  1
  O  O2875  1  0.10366800  0.00733580  0.16941540  1
  O  O2876  1  0.10366800  0.00733580  0.36941540  1
  O  O2877  1  0.10366800  0.00733580  0.56941540  1
  O  O2878  1  0.10366800  0.00733580  0.76941540  1
  O  O2879  1  0.10366800  0.00733580  0.96941540  1
  O  O2880  1  0.10366800  0.20733580  0.16941540  1
  O  O2881  1  0.10366800  0.20733580  0.36941540  1
  O  O2882  1  0.10366800  0.20733580  0.56941540  1
  O  O2883  1  0.10366800  0.20733580  0.76941540  1
  O  O2884  1  0.10366800  0.20733580  0.96941540  1
  O  O2885  1  0.10366800  0.40733580  0.16941540  1
  O  O2886  1  0.10366800  0.40733580  0.36941540  1
  O  O2887  1  0.10366800  0.40733580  0.56941540  1
  O  O2888  1  0.10366800  0.40733580  0.76941540  1
  O  O2889  1  0.10366800  0.40733580  0.96941540  1
  O  O2890  1  0.10366800  0.60733580  0.16941540  1
  O  O2891  1  0.10366800  0.60733580  0.36941540  1
  O  O2892  1  0.10366800  0.60733580  0.56941540  1
  O  O2893  1  0.10366800  0.60733580  0.76941540  1
  O  O2894  1  0.10366800  0.60733580  0.96941540  1
  O  O2895  1  0.10366800  0.80733580  0.16941540  1
  O  O2896  1  0.10366800  0.80733580  0.36941540  1
  O  O2897  1  0.10366800  0.80733580  0.56941540  1
  O  O2898  1  0.10366800  0.80733580  0.76941540  1
  O  O2899  1  0.10366800  0.80733580  0.96941540  1
  O  O2900  1  0.30366800  0.00733580  0.16941540  1
  O  O2901  1  0.30366800  0.00733580  0.36941540  1
  O  O2902  1  0.30366800  0.00733580  0.56941540  1
  O  O2903  1  0.30366800  0.00733580  0.76941540  1
  O  O2904  1  0.30366800  0.00733580  0.96941540  1
  O  O2905  1  0.30366800  0.20733580  0.16941540  1
  O  O2906  1  0.30366800  0.20733580  0.36941540  1
  O  O2907  1  0.30366800  0.20733580  0.56941540  1
  O  O2908  1  0.30366800  0.20733580  0.76941540  1
  O  O2909  1  0.30366800  0.20733580  0.96941540  1
  O  O2910  1  0.30366800  0.40733580  0.16941540  1
  O  O2911  1  0.30366800  0.40733580  0.36941540  1
  O  O2912  1  0.30366800  0.40733580  0.56941540  1
  O  O2913  1  0.30366800  0.40733580  0.76941540  1
  O  O2914  1  0.30366800  0.40733580  0.96941540  1
  O  O2915  1  0.30366800  0.60733580  0.16941540  1
  O  O2916  1  0.30366800  0.60733580  0.36941540  1
  O  O2917  1  0.30366800  0.60733580  0.56941540  1
  O  O2918  1  0.30366800  0.60733580  0.76941540  1
  O  O2919  1  0.30366800  0.60733580  0.96941540  1
  O  O2920  1  0.30366800  0.80733580  0.16941540  1
  O  O2921  1  0.30366800  0.80733580  0.36941540  1
  O  O2922  1  0.30366800  0.80733580  0.56941540  1
  O  O2923  1  0.30366800  0.80733580  0.76941540  1
  O  O2924  1  0.30366800  0.80733580  0.96941540  1
  O  O2925  1  0.50366800  0.00733580  0.16941540  1
  O  O2926  1  0.50366800  0.00733580  0.36941540  1
  O  O2927  1  0.50366800  0.00733580  0.56941540  1
  O  O2928  1  0.50366800  0.00733580  0.76941540  1
  O  O2929  1  0.50366800  0.00733580  0.96941540  1
  O  O2930  1  0.50366800  0.20733580  0.16941540  1
  O  O2931  1  0.50366800  0.20733580  0.36941540  1
  O  O2932  1  0.50366800  0.20733580  0.56941540  1
  O  O2933  1  0.50366800  0.20733580  0.76941540  1
  O  O2934  1  0.50366800  0.20733580  0.96941540  1
  O  O2935  1  0.50366800  0.40733580  0.16941540  1
  O  O2936  1  0.50366800  0.40733580  0.36941540  1
  O  O2937  1  0.50366800  0.40733580  0.56941540  1
  O  O2938  1  0.50366800  0.40733580  0.76941540  1
  O  O2939  1  0.50366800  0.40733580  0.96941540  1
  O  O2940  1  0.50366800  0.60733580  0.16941540  1
  O  O2941  1  0.50366800  0.60733580  0.36941540  1
  O  O2942  1  0.50366800  0.60733580  0.56941540  1
  O  O2943  1  0.50366800  0.60733580  0.76941540  1
  O  O2944  1  0.50366800  0.60733580  0.96941540  1
  O  O2945  1  0.50366800  0.80733580  0.16941540  1
  O  O2946  1  0.50366800  0.80733580  0.36941540  1
  O  O2947  1  0.50366800  0.80733580  0.56941540  1
  O  O2948  1  0.50366800  0.80733580  0.76941540  1
  O  O2949  1  0.50366800  0.80733580  0.96941540  1
  O  O2950  1  0.70366800  0.00733580  0.16941540  1
  O  O2951  1  0.70366800  0.00733580  0.36941540  1
  O  O2952  1  0.70366800  0.00733580  0.56941540  1
  O  O2953  1  0.70366800  0.00733580  0.76941540  1
  O  O2954  1  0.70366800  0.00733580  0.96941540  1
  O  O2955  1  0.70366800  0.20733580  0.16941540  1
  O  O2956  1  0.70366800  0.20733580  0.36941540  1
  O  O2957  1  0.70366800  0.20733580  0.56941540  1
  O  O2958  1  0.70366800  0.20733580  0.76941540  1
  O  O2959  1  0.70366800  0.20733580  0.96941540  1
  O  O2960  1  0.70366800  0.40733580  0.16941540  1
  O  O2961  1  0.70366800  0.40733580  0.36941540  1
  O  O2962  1  0.70366800  0.40733580  0.56941540  1
  O  O2963  1  0.70366800  0.40733580  0.76941540  1
  O  O2964  1  0.70366800  0.40733580  0.96941540  1
  O  O2965  1  0.70366800  0.60733580  0.16941540  1
  O  O2966  1  0.70366800  0.60733580  0.36941540  1
  O  O2967  1  0.70366800  0.60733580  0.56941540  1
  O  O2968  1  0.70366800  0.60733580  0.76941540  1
  O  O2969  1  0.70366800  0.60733580  0.96941540  1
  O  O2970  1  0.70366800  0.80733580  0.16941540  1
  O  O2971  1  0.70366800  0.80733580  0.36941540  1
  O  O2972  1  0.70366800  0.80733580  0.56941540  1
  O  O2973  1  0.70366800  0.80733580  0.76941540  1
  O  O2974  1  0.70366800  0.80733580  0.96941540  1
  O  O2975  1  0.90366800  0.00733580  0.16941540  1
  O  O2976  1  0.90366800  0.00733580  0.36941540  1
  O  O2977  1  0.90366800  0.00733580  0.56941540  1
  O  O2978  1  0.90366800  0.00733580  0.76941540  1
  O  O2979  1  0.90366800  0.00733580  0.96941540  1
  O  O2980  1  0.90366800  0.20733580  0.16941540  1
  O  O2981  1  0.90366800  0.20733580  0.36941540  1
  O  O2982  1  0.90366800  0.20733580  0.56941540  1
  O  O2983  1  0.90366800  0.20733580  0.76941540  1
  O  O2984  1  0.90366800  0.20733580  0.96941540  1
  O  O2985  1  0.90366800  0.40733580  0.16941540  1
  O  O2986  1  0.90366800  0.40733580  0.36941540  1
  O  O2987  1  0.90366800  0.40733580  0.56941540  1
  O  O2988  1  0.90366800  0.40733580  0.76941540  1
  O  O2989  1  0.90366800  0.40733580  0.96941540  1
  O  O2990  1  0.90366800  0.60733580  0.16941540  1
  O  O2991  1  0.90366800  0.60733580  0.36941540  1
  O  O2992  1  0.90366800  0.60733580  0.56941540  1
  O  O2993  1  0.90366800  0.60733580  0.76941540  1
  O  O2994  1  0.90366800  0.60733580  0.96941540  1
  O  O2995  1  0.90366800  0.80733580  0.16941540  1
  O  O2996  1  0.90366800  0.80733580  0.36941540  1
  O  O2997  1  0.90366800  0.80733580  0.56941540  1
  O  O2998  1  0.90366800  0.80733580  0.76941540  1
  O  O2999  1  0.90366800  0.80733580  0.96941540  1
  O  O3000  1  0.13333340  0.06666660  0.12139980  1
  O  O3001  1  0.13333340  0.06666660  0.32139980  1
  O  O3002  1  0.13333340  0.06666660  0.52139980  1
  O  O3003  1  0.13333340  0.06666660  0.72139980  1
  O  O3004  1  0.13333340  0.06666660  0.92139980  1
  O  O3005  1  0.13333340  0.26666660  0.12139980  1
  O  O3006  1  0.13333340  0.26666660  0.32139980  1
  O  O3007  1  0.13333340  0.26666660  0.52139980  1
  O  O3008  1  0.13333340  0.26666660  0.72139980  1
  O  O3009  1  0.13333340  0.26666660  0.92139980  1
  O  O3010  1  0.13333340  0.46666660  0.12139980  1
  O  O3011  1  0.13333340  0.46666660  0.32139980  1
  O  O3012  1  0.13333340  0.46666660  0.52139980  1
  O  O3013  1  0.13333340  0.46666660  0.72139980  1
  O  O3014  1  0.13333340  0.46666660  0.92139980  1
  O  O3015  1  0.13333340  0.66666660  0.12139980  1
  O  O3016  1  0.13333340  0.66666660  0.32139980  1
  O  O3017  1  0.13333340  0.66666660  0.52139980  1
  O  O3018  1  0.13333340  0.66666660  0.72139980  1
  O  O3019  1  0.13333340  0.66666660  0.92139980  1
  O  O3020  1  0.13333340  0.86666660  0.12139980  1
  O  O3021  1  0.13333340  0.86666660  0.32139980  1
  O  O3022  1  0.13333340  0.86666660  0.52139980  1
  O  O3023  1  0.13333340  0.86666660  0.72139980  1
  O  O3024  1  0.13333340  0.86666660  0.92139980  1
  O  O3025  1  0.33333340  0.06666660  0.12139980  1
  O  O3026  1  0.33333340  0.06666660  0.32139980  1
  O  O3027  1  0.33333340  0.06666660  0.52139980  1
  O  O3028  1  0.33333340  0.06666660  0.72139980  1
  O  O3029  1  0.33333340  0.06666660  0.92139980  1
  O  O3030  1  0.33333340  0.26666660  0.12139980  1
  O  O3031  1  0.33333340  0.26666660  0.32139980  1
  O  O3032  1  0.33333340  0.26666660  0.52139980  1
  O  O3033  1  0.33333340  0.26666660  0.72139980  1
  O  O3034  1  0.33333340  0.26666660  0.92139980  1
  O  O3035  1  0.33333340  0.46666660  0.12139980  1
  O  O3036  1  0.33333340  0.46666660  0.32139980  1
  O  O3037  1  0.33333340  0.46666660  0.52139980  1
  O  O3038  1  0.33333340  0.46666660  0.72139980  1
  O  O3039  1  0.33333340  0.46666660  0.92139980  1
  O  O3040  1  0.33333340  0.66666660  0.12139980  1
  O  O3041  1  0.33333340  0.66666660  0.32139980  1
  O  O3042  1  0.33333340  0.66666660  0.52139980  1
  O  O3043  1  0.33333340  0.66666660  0.72139980  1
  O  O3044  1  0.33333340  0.66666660  0.92139980  1
  O  O3045  1  0.33333340  0.86666660  0.12139980  1
  O  O3046  1  0.33333340  0.86666660  0.32139980  1
  O  O3047  1  0.33333340  0.86666660  0.52139980  1
  O  O3048  1  0.33333340  0.86666660  0.72139980  1
  O  O3049  1  0.33333340  0.86666660  0.92139980  1
  O  O3050  1  0.53333340  0.06666660  0.12139980  1
  O  O3051  1  0.53333340  0.06666660  0.32139980  1
  O  O3052  1  0.53333340  0.06666660  0.52139980  1
  O  O3053  1  0.53333340  0.06666660  0.72139980  1
  O  O3054  1  0.53333340  0.06666660  0.92139980  1
  O  O3055  1  0.53333340  0.26666660  0.12139980  1
  O  O3056  1  0.53333340  0.26666660  0.32139980  1
  O  O3057  1  0.53333340  0.26666660  0.52139980  1
  O  O3058  1  0.53333340  0.26666660  0.72139980  1
  O  O3059  1  0.53333340  0.26666660  0.92139980  1
  O  O3060  1  0.53333340  0.46666660  0.12139980  1
  O  O3061  1  0.53333340  0.46666660  0.32139980  1
  O  O3062  1  0.53333340  0.46666660  0.52139980  1
  O  O3063  1  0.53333340  0.46666660  0.72139980  1
  O  O3064  1  0.53333340  0.46666660  0.92139980  1
  O  O3065  1  0.53333340  0.66666660  0.12139980  1
  O  O3066  1  0.53333340  0.66666660  0.32139980  1
  O  O3067  1  0.53333340  0.66666660  0.52139980  1
  O  O3068  1  0.53333340  0.66666660  0.72139980  1
  O  O3069  1  0.53333340  0.66666660  0.92139980  1
  O  O3070  1  0.53333340  0.86666660  0.12139980  1
  O  O3071  1  0.53333340  0.86666660  0.32139980  1
  O  O3072  1  0.53333340  0.86666660  0.52139980  1
  O  O3073  1  0.53333340  0.86666660  0.72139980  1
  O  O3074  1  0.53333340  0.86666660  0.92139980  1
  O  O3075  1  0.73333340  0.06666660  0.12139980  1
  O  O3076  1  0.73333340  0.06666660  0.32139980  1
  O  O3077  1  0.73333340  0.06666660  0.52139980  1
  O  O3078  1  0.73333340  0.06666660  0.72139980  1
  O  O3079  1  0.73333340  0.06666660  0.92139980  1
  O  O3080  1  0.73333340  0.26666660  0.12139980  1
  O  O3081  1  0.73333340  0.26666660  0.32139980  1
  O  O3082  1  0.73333340  0.26666660  0.52139980  1
  O  O3083  1  0.73333340  0.26666660  0.72139980  1
  O  O3084  1  0.73333340  0.26666660  0.92139980  1
  O  O3085  1  0.73333340  0.46666660  0.12139980  1
  O  O3086  1  0.73333340  0.46666660  0.32139980  1
  O  O3087  1  0.73333340  0.46666660  0.52139980  1
  O  O3088  1  0.73333340  0.46666660  0.72139980  1
  O  O3089  1  0.73333340  0.46666660  0.92139980  1
  O  O3090  1  0.73333340  0.66666660  0.12139980  1
  O  O3091  1  0.73333340  0.66666660  0.32139980  1
  O  O3092  1  0.73333340  0.66666660  0.52139980  1
  O  O3093  1  0.73333340  0.66666660  0.72139980  1
  O  O3094  1  0.73333340  0.66666660  0.92139980  1
  O  O3095  1  0.73333340  0.86666660  0.12139980  1
  O  O3096  1  0.73333340  0.86666660  0.32139980  1
  O  O3097  1  0.73333340  0.86666660  0.52139980  1
  O  O3098  1  0.73333340  0.86666660  0.72139980  1
  O  O3099  1  0.73333340  0.86666660  0.92139980  1
  O  O3100  1  0.93333340  0.06666660  0.12139980  1
  O  O3101  1  0.93333340  0.06666660  0.32139980  1
  O  O3102  1  0.93333340  0.06666660  0.52139980  1
  O  O3103  1  0.93333340  0.06666660  0.72139980  1
  O  O3104  1  0.93333340  0.06666660  0.92139980  1
  O  O3105  1  0.93333340  0.26666660  0.12139980  1
  O  O3106  1  0.93333340  0.26666660  0.32139980  1
  O  O3107  1  0.93333340  0.26666660  0.52139980  1
  O  O3108  1  0.93333340  0.26666660  0.72139980  1
  O  O3109  1  0.93333340  0.26666660  0.92139980  1
  O  O3110  1  0.93333340  0.46666660  0.12139980  1
  O  O3111  1  0.93333340  0.46666660  0.32139980  1
  O  O3112  1  0.93333340  0.46666660  0.52139980  1
  O  O3113  1  0.93333340  0.46666660  0.72139980  1
  O  O3114  1  0.93333340  0.46666660  0.92139980  1
  O  O3115  1  0.93333340  0.66666660  0.12139980  1
  O  O3116  1  0.93333340  0.66666660  0.32139980  1
  O  O3117  1  0.93333340  0.66666660  0.52139980  1
  O  O3118  1  0.93333340  0.66666660  0.72139980  1
  O  O3119  1  0.93333340  0.66666660  0.92139980  1
  O  O3120  1  0.93333340  0.86666660  0.12139980  1
  O  O3121  1  0.93333340  0.86666660  0.32139980  1
  O  O3122  1  0.93333340  0.86666660  0.52139980  1
  O  O3123  1  0.93333340  0.86666660  0.72139980  1
  O  O3124  1  0.93333340  0.86666660  0.92139980  1
  O  O3125  1  0.16645220  0.13290440  0.01905640  1
  O  O3126  1  0.16645220  0.13290440  0.21905640  1
  O  O3127  1  0.16645220  0.13290440  0.41905640  1
  O  O3128  1  0.16645220  0.13290440  0.61905640  1
  O  O3129  1  0.16645220  0.13290440  0.81905640  1
  O  O3130  1  0.16645220  0.33290440  0.01905640  1
  O  O3131  1  0.16645220  0.33290440  0.21905640  1
  O  O3132  1  0.16645220  0.33290440  0.41905640  1
  O  O3133  1  0.16645220  0.33290440  0.61905640  1
  O  O3134  1  0.16645220  0.33290440  0.81905640  1
  O  O3135  1  0.16645220  0.53290440  0.01905640  1
  O  O3136  1  0.16645220  0.53290440  0.21905640  1
  O  O3137  1  0.16645220  0.53290440  0.41905640  1
  O  O3138  1  0.16645220  0.53290440  0.61905640  1
  O  O3139  1  0.16645220  0.53290440  0.81905640  1
  O  O3140  1  0.16645220  0.73290440  0.01905640  1
  O  O3141  1  0.16645220  0.73290440  0.21905640  1
  O  O3142  1  0.16645220  0.73290440  0.41905640  1
  O  O3143  1  0.16645220  0.73290440  0.61905640  1
  O  O3144  1  0.16645220  0.73290440  0.81905640  1
  O  O3145  1  0.16645220  0.93290440  0.01905640  1
  O  O3146  1  0.16645220  0.93290440  0.21905640  1
  O  O3147  1  0.16645220  0.93290440  0.41905640  1
  O  O3148  1  0.16645220  0.93290440  0.61905640  1
  O  O3149  1  0.16645220  0.93290440  0.81905640  1
  O  O3150  1  0.36645220  0.13290440  0.01905640  1
  O  O3151  1  0.36645220  0.13290440  0.21905640  1
  O  O3152  1  0.36645220  0.13290440  0.41905640  1
  O  O3153  1  0.36645220  0.13290440  0.61905640  1
  O  O3154  1  0.36645220  0.13290440  0.81905640  1
  O  O3155  1  0.36645220  0.33290440  0.01905640  1
  O  O3156  1  0.36645220  0.33290440  0.21905640  1
  O  O3157  1  0.36645220  0.33290440  0.41905640  1
  O  O3158  1  0.36645220  0.33290440  0.61905640  1
  O  O3159  1  0.36645220  0.33290440  0.81905640  1
  O  O3160  1  0.36645220  0.53290440  0.01905640  1
  O  O3161  1  0.36645220  0.53290440  0.21905640  1
  O  O3162  1  0.36645220  0.53290440  0.41905640  1
  O  O3163  1  0.36645220  0.53290440  0.61905640  1
  O  O3164  1  0.36645220  0.53290440  0.81905640  1
  O  O3165  1  0.36645220  0.73290440  0.01905640  1
  O  O3166  1  0.36645220  0.73290440  0.21905640  1
  O  O3167  1  0.36645220  0.73290440  0.41905640  1
  O  O3168  1  0.36645220  0.73290440  0.61905640  1
  O  O3169  1  0.36645220  0.73290440  0.81905640  1
  O  O3170  1  0.36645220  0.93290440  0.01905640  1
  O  O3171  1  0.36645220  0.93290440  0.21905640  1
  O  O3172  1  0.36645220  0.93290440  0.41905640  1
  O  O3173  1  0.36645220  0.93290440  0.61905640  1
  O  O3174  1  0.36645220  0.93290440  0.81905640  1
  O  O3175  1  0.56645220  0.13290440  0.01905640  1
  O  O3176  1  0.56645220  0.13290440  0.21905640  1
  O  O3177  1  0.56645220  0.13290440  0.41905640  1
  O  O3178  1  0.56645220  0.13290440  0.61905640  1
  O  O3179  1  0.56645220  0.13290440  0.81905640  1
  O  O3180  1  0.56645220  0.33290440  0.01905640  1
  O  O3181  1  0.56645220  0.33290440  0.21905640  1
  O  O3182  1  0.56645220  0.33290440  0.41905640  1
  O  O3183  1  0.56645220  0.33290440  0.61905640  1
  O  O3184  1  0.56645220  0.33290440  0.81905640  1
  O  O3185  1  0.56645220  0.53290440  0.01905640  1
  O  O3186  1  0.56645220  0.53290440  0.21905640  1
  O  O3187  1  0.56645220  0.53290440  0.41905640  1
  O  O3188  1  0.56645220  0.53290440  0.61905640  1
  O  O3189  1  0.56645220  0.53290440  0.81905640  1
  O  O3190  1  0.56645220  0.73290440  0.01905640  1
  O  O3191  1  0.56645220  0.73290440  0.21905640  1
  O  O3192  1  0.56645220  0.73290440  0.41905640  1
  O  O3193  1  0.56645220  0.73290440  0.61905640  1
  O  O3194  1  0.56645220  0.73290440  0.81905640  1
  O  O3195  1  0.56645220  0.93290440  0.01905640  1
  O  O3196  1  0.56645220  0.93290440  0.21905640  1
  O  O3197  1  0.56645220  0.93290440  0.41905640  1
  O  O3198  1  0.56645220  0.93290440  0.61905640  1
  O  O3199  1  0.56645220  0.93290440  0.81905640  1
  O  O3200  1  0.76645220  0.13290440  0.01905640  1
  O  O3201  1  0.76645220  0.13290440  0.21905640  1
  O  O3202  1  0.76645220  0.13290440  0.41905640  1
  O  O3203  1  0.76645220  0.13290440  0.61905640  1
  O  O3204  1  0.76645220  0.13290440  0.81905640  1
  O  O3205  1  0.76645220  0.33290440  0.01905640  1
  O  O3206  1  0.76645220  0.33290440  0.21905640  1
  O  O3207  1  0.76645220  0.33290440  0.41905640  1
  O  O3208  1  0.76645220  0.33290440  0.61905640  1
  O  O3209  1  0.76645220  0.33290440  0.81905640  1
  O  O3210  1  0.76645220  0.53290440  0.01905640  1
  O  O3211  1  0.76645220  0.53290440  0.21905640  1
  O  O3212  1  0.76645220  0.53290440  0.41905640  1
  O  O3213  1  0.76645220  0.53290440  0.61905640  1
  O  O3214  1  0.76645220  0.53290440  0.81905640  1
  O  O3215  1  0.76645220  0.73290440  0.01905640  1
  O  O3216  1  0.76645220  0.73290440  0.21905640  1
  O  O3217  1  0.76645220  0.73290440  0.41905640  1
  O  O3218  1  0.76645220  0.73290440  0.61905640  1
  O  O3219  1  0.76645220  0.73290440  0.81905640  1
  O  O3220  1  0.76645220  0.93290440  0.01905640  1
  O  O3221  1  0.76645220  0.93290440  0.21905640  1
  O  O3222  1  0.76645220  0.93290440  0.41905640  1
  O  O3223  1  0.76645220  0.93290440  0.61905640  1
  O  O3224  1  0.76645220  0.93290440  0.81905640  1
  O  O3225  1  0.96645220  0.13290440  0.01905640  1
  O  O3226  1  0.96645220  0.13290440  0.21905640  1
  O  O3227  1  0.96645220  0.13290440  0.41905640  1
  O  O3228  1  0.96645220  0.13290440  0.61905640  1
  O  O3229  1  0.96645220  0.13290440  0.81905640  1
  O  O3230  1  0.96645220  0.33290440  0.01905640  1
  O  O3231  1  0.96645220  0.33290440  0.21905640  1
  O  O3232  1  0.96645220  0.33290440  0.41905640  1
  O  O3233  1  0.96645220  0.33290440  0.61905640  1
  O  O3234  1  0.96645220  0.33290440  0.81905640  1
  O  O3235  1  0.96645220  0.53290440  0.01905640  1
  O  O3236  1  0.96645220  0.53290440  0.21905640  1
  O  O3237  1  0.96645220  0.53290440  0.41905640  1
  O  O3238  1  0.96645220  0.53290440  0.61905640  1
  O  O3239  1  0.96645220  0.53290440  0.81905640  1
  O  O3240  1  0.96645220  0.73290440  0.01905640  1
  O  O3241  1  0.96645220  0.73290440  0.21905640  1
  O  O3242  1  0.96645220  0.73290440  0.41905640  1
  O  O3243  1  0.96645220  0.73290440  0.61905640  1
  O  O3244  1  0.96645220  0.73290440  0.81905640  1
  O  O3245  1  0.96645220  0.93290440  0.01905640  1
  O  O3246  1  0.96645220  0.93290440  0.21905640  1
  O  O3247  1  0.96645220  0.93290440  0.41905640  1
  O  O3248  1  0.96645220  0.93290440  0.61905640  1
  O  O3249  1  0.96645220  0.93290440  0.81905640  1
  O  O3250  1  0.19266420  0.09633200  0.16941540  1
  O  O3251  1  0.19266420  0.09633200  0.36941540  1
  O  O3252  1  0.19266420  0.09633200  0.56941540  1
  O  O3253  1  0.19266420  0.09633200  0.76941540  1
  O  O3254  1  0.19266420  0.09633200  0.96941540  1
  O  O3255  1  0.19266420  0.29633200  0.16941540  1
  O  O3256  1  0.19266420  0.29633200  0.36941540  1
  O  O3257  1  0.19266420  0.29633200  0.56941540  1
  O  O3258  1  0.19266420  0.29633200  0.76941540  1
  O  O3259  1  0.19266420  0.29633200  0.96941540  1
  O  O3260  1  0.19266420  0.49633200  0.16941540  1
  O  O3261  1  0.19266420  0.49633200  0.36941540  1
  O  O3262  1  0.19266420  0.49633200  0.56941540  1
  O  O3263  1  0.19266420  0.49633200  0.76941540  1
  O  O3264  1  0.19266420  0.49633200  0.96941540  1
  O  O3265  1  0.19266420  0.69633200  0.16941540  1
  O  O3266  1  0.19266420  0.69633200  0.36941540  1
  O  O3267  1  0.19266420  0.69633200  0.56941540  1
  O  O3268  1  0.19266420  0.69633200  0.76941540  1
  O  O3269  1  0.19266420  0.69633200  0.96941540  1
  O  O3270  1  0.19266420  0.89633200  0.16941540  1
  O  O3271  1  0.19266420  0.89633200  0.36941540  1
  O  O3272  1  0.19266420  0.89633200  0.56941540  1
  O  O3273  1  0.19266420  0.89633200  0.76941540  1
  O  O3274  1  0.19266420  0.89633200  0.96941540  1
  O  O3275  1  0.39266420  0.09633200  0.16941540  1
  O  O3276  1  0.39266420  0.09633200  0.36941540  1
  O  O3277  1  0.39266420  0.09633200  0.56941540  1
  O  O3278  1  0.39266420  0.09633200  0.76941540  1
  O  O3279  1  0.39266420  0.09633200  0.96941540  1
  O  O3280  1  0.39266420  0.29633200  0.16941540  1
  O  O3281  1  0.39266420  0.29633200  0.36941540  1
  O  O3282  1  0.39266420  0.29633200  0.56941540  1
  O  O3283  1  0.39266420  0.29633200  0.76941540  1
  O  O3284  1  0.39266420  0.29633200  0.96941540  1
  O  O3285  1  0.39266420  0.49633200  0.16941540  1
  O  O3286  1  0.39266420  0.49633200  0.36941540  1
  O  O3287  1  0.39266420  0.49633200  0.56941540  1
  O  O3288  1  0.39266420  0.49633200  0.76941540  1
  O  O3289  1  0.39266420  0.49633200  0.96941540  1
  O  O3290  1  0.39266420  0.69633200  0.16941540  1
  O  O3291  1  0.39266420  0.69633200  0.36941540  1
  O  O3292  1  0.39266420  0.69633200  0.56941540  1
  O  O3293  1  0.39266420  0.69633200  0.76941540  1
  O  O3294  1  0.39266420  0.69633200  0.96941540  1
  O  O3295  1  0.39266420  0.89633200  0.16941540  1
  O  O3296  1  0.39266420  0.89633200  0.36941540  1
  O  O3297  1  0.39266420  0.89633200  0.56941540  1
  O  O3298  1  0.39266420  0.89633200  0.76941540  1
  O  O3299  1  0.39266420  0.89633200  0.96941540  1
  O  O3300  1  0.59266420  0.09633200  0.16941540  1
  O  O3301  1  0.59266420  0.09633200  0.36941540  1
  O  O3302  1  0.59266420  0.09633200  0.56941540  1
  O  O3303  1  0.59266420  0.09633200  0.76941540  1
  O  O3304  1  0.59266420  0.09633200  0.96941540  1
  O  O3305  1  0.59266420  0.29633200  0.16941540  1
  O  O3306  1  0.59266420  0.29633200  0.36941540  1
  O  O3307  1  0.59266420  0.29633200  0.56941540  1
  O  O3308  1  0.59266420  0.29633200  0.76941540  1
  O  O3309  1  0.59266420  0.29633200  0.96941540  1
  O  O3310  1  0.59266420  0.49633200  0.16941540  1
  O  O3311  1  0.59266420  0.49633200  0.36941540  1
  O  O3312  1  0.59266420  0.49633200  0.56941540  1
  O  O3313  1  0.59266420  0.49633200  0.76941540  1
  O  O3314  1  0.59266420  0.49633200  0.96941540  1
  O  O3315  1  0.59266420  0.69633200  0.16941540  1
  O  O3316  1  0.59266420  0.69633200  0.36941540  1
  O  O3317  1  0.59266420  0.69633200  0.56941540  1
  O  O3318  1  0.59266420  0.69633200  0.76941540  1
  O  O3319  1  0.59266420  0.69633200  0.96941540  1
  O  O3320  1  0.59266420  0.89633200  0.16941540  1
  O  O3321  1  0.59266420  0.89633200  0.36941540  1
  O  O3322  1  0.59266420  0.89633200  0.56941540  1
  O  O3323  1  0.59266420  0.89633200  0.76941540  1
  O  O3324  1  0.59266420  0.89633200  0.96941540  1
  O  O3325  1  0.79266420  0.09633200  0.16941540  1
  O  O3326  1  0.79266420  0.09633200  0.36941540  1
  O  O3327  1  0.79266420  0.09633200  0.56941540  1
  O  O3328  1  0.79266420  0.09633200  0.76941540  1
  O  O3329  1  0.79266420  0.09633200  0.96941540  1
  O  O3330  1  0.79266420  0.29633200  0.16941540  1
  O  O3331  1  0.79266420  0.29633200  0.36941540  1
  O  O3332  1  0.79266420  0.29633200  0.56941540  1
  O  O3333  1  0.79266420  0.29633200  0.76941540  1
  O  O3334  1  0.79266420  0.29633200  0.96941540  1
  O  O3335  1  0.79266420  0.49633200  0.16941540  1
  O  O3336  1  0.79266420  0.49633200  0.36941540  1
  O  O3337  1  0.79266420  0.49633200  0.56941540  1
  O  O3338  1  0.79266420  0.49633200  0.76941540  1
  O  O3339  1  0.79266420  0.49633200  0.96941540  1
  O  O3340  1  0.79266420  0.69633200  0.16941540  1
  O  O3341  1  0.79266420  0.69633200  0.36941540  1
  O  O3342  1  0.79266420  0.69633200  0.56941540  1
  O  O3343  1  0.79266420  0.69633200  0.76941540  1
  O  O3344  1  0.79266420  0.69633200  0.96941540  1
  O  O3345  1  0.79266420  0.89633200  0.16941540  1
  O  O3346  1  0.79266420  0.89633200  0.36941540  1
  O  O3347  1  0.79266420  0.89633200  0.56941540  1
  O  O3348  1  0.79266420  0.89633200  0.76941540  1
  O  O3349  1  0.79266420  0.89633200  0.96941540  1
  O  O3350  1  0.99266420  0.09633200  0.16941540  1
  O  O3351  1  0.99266420  0.09633200  0.36941540  1
  O  O3352  1  0.99266420  0.09633200  0.56941540  1
  O  O3353  1  0.99266420  0.09633200  0.76941540  1
  O  O3354  1  0.99266420  0.09633200  0.96941540  1
  O  O3355  1  0.99266420  0.29633200  0.16941540  1
  O  O3356  1  0.99266420  0.29633200  0.36941540  1
  O  O3357  1  0.99266420  0.29633200  0.56941540  1
  O  O3358  1  0.99266420  0.29633200  0.76941540  1
  O  O3359  1  0.99266420  0.29633200  0.96941540  1
  O  O3360  1  0.99266420  0.49633200  0.16941540  1
  O  O3361  1  0.99266420  0.49633200  0.36941540  1
  O  O3362  1  0.99266420  0.49633200  0.56941540  1
  O  O3363  1  0.99266420  0.49633200  0.76941540  1
  O  O3364  1  0.99266420  0.49633200  0.96941540  1
  O  O3365  1  0.99266420  0.69633200  0.16941540  1
  O  O3366  1  0.99266420  0.69633200  0.36941540  1
  O  O3367  1  0.99266420  0.69633200  0.56941540  1
  O  O3368  1  0.99266420  0.69633200  0.76941540  1
  O  O3369  1  0.99266420  0.69633200  0.96941540  1
  O  O3370  1  0.99266420  0.89633200  0.16941540  1
  O  O3371  1  0.99266420  0.89633200  0.36941540  1
  O  O3372  1  0.99266420  0.89633200  0.56941540  1
  O  O3373  1  0.99266420  0.89633200  0.76941540  1
  O  O3374  1  0.99266420  0.89633200  0.96941540  1
  O  O3375  1  0.16645220  0.03354780  0.01905640  1
  O  O3376  1  0.16645220  0.03354780  0.21905640  1
  O  O3377  1  0.16645220  0.03354780  0.41905640  1
  O  O3378  1  0.16645220  0.03354780  0.61905640  1
  O  O3379  1  0.16645220  0.03354780  0.81905640  1
  O  O3380  1  0.16645220  0.23354780  0.01905640  1
  O  O3381  1  0.16645220  0.23354780  0.21905640  1
  O  O3382  1  0.16645220  0.23354780  0.41905640  1
  O  O3383  1  0.16645220  0.23354780  0.61905640  1
  O  O3384  1  0.16645220  0.23354780  0.81905640  1
  O  O3385  1  0.16645220  0.43354780  0.01905640  1
  O  O3386  1  0.16645220  0.43354780  0.21905640  1
  O  O3387  1  0.16645220  0.43354780  0.41905640  1
  O  O3388  1  0.16645220  0.43354780  0.61905640  1
  O  O3389  1  0.16645220  0.43354780  0.81905640  1
  O  O3390  1  0.16645220  0.63354780  0.01905640  1
  O  O3391  1  0.16645220  0.63354780  0.21905640  1
  O  O3392  1  0.16645220  0.63354780  0.41905640  1
  O  O3393  1  0.16645220  0.63354780  0.61905640  1
  O  O3394  1  0.16645220  0.63354780  0.81905640  1
  O  O3395  1  0.16645220  0.83354780  0.01905640  1
  O  O3396  1  0.16645220  0.83354780  0.21905640  1
  O  O3397  1  0.16645220  0.83354780  0.41905640  1
  O  O3398  1  0.16645220  0.83354780  0.61905640  1
  O  O3399  1  0.16645220  0.83354780  0.81905640  1
  O  O3400  1  0.36645220  0.03354780  0.01905640  1
  O  O3401  1  0.36645220  0.03354780  0.21905640  1
  O  O3402  1  0.36645220  0.03354780  0.41905640  1
  O  O3403  1  0.36645220  0.03354780  0.61905640  1
  O  O3404  1  0.36645220  0.03354780  0.81905640  1
  O  O3405  1  0.36645220  0.23354780  0.01905640  1
  O  O3406  1  0.36645220  0.23354780  0.21905640  1
  O  O3407  1  0.36645220  0.23354780  0.41905640  1
  O  O3408  1  0.36645220  0.23354780  0.61905640  1
  O  O3409  1  0.36645220  0.23354780  0.81905640  1
  O  O3410  1  0.36645220  0.43354780  0.01905640  1
  O  O3411  1  0.36645220  0.43354780  0.21905640  1
  O  O3412  1  0.36645220  0.43354780  0.41905640  1
  O  O3413  1  0.36645220  0.43354780  0.61905640  1
  O  O3414  1  0.36645220  0.43354780  0.81905640  1
  O  O3415  1  0.36645220  0.63354780  0.01905640  1
  O  O3416  1  0.36645220  0.63354780  0.21905640  1
  O  O3417  1  0.36645220  0.63354780  0.41905640  1
  O  O3418  1  0.36645220  0.63354780  0.61905640  1
  O  O3419  1  0.36645220  0.63354780  0.81905640  1
  O  O3420  1  0.36645220  0.83354780  0.01905640  1
  O  O3421  1  0.36645220  0.83354780  0.21905640  1
  O  O3422  1  0.36645220  0.83354780  0.41905640  1
  O  O3423  1  0.36645220  0.83354780  0.61905640  1
  O  O3424  1  0.36645220  0.83354780  0.81905640  1
  O  O3425  1  0.56645220  0.03354780  0.01905640  1
  O  O3426  1  0.56645220  0.03354780  0.21905640  1
  O  O3427  1  0.56645220  0.03354780  0.41905640  1
  O  O3428  1  0.56645220  0.03354780  0.61905640  1
  O  O3429  1  0.56645220  0.03354780  0.81905640  1
  O  O3430  1  0.56645220  0.23354780  0.01905640  1
  O  O3431  1  0.56645220  0.23354780  0.21905640  1
  O  O3432  1  0.56645220  0.23354780  0.41905640  1
  O  O3433  1  0.56645220  0.23354780  0.61905640  1
  O  O3434  1  0.56645220  0.23354780  0.81905640  1
  O  O3435  1  0.56645220  0.43354780  0.01905640  1
  O  O3436  1  0.56645220  0.43354780  0.21905640  1
  O  O3437  1  0.56645220  0.43354780  0.41905640  1
  O  O3438  1  0.56645220  0.43354780  0.61905640  1
  O  O3439  1  0.56645220  0.43354780  0.81905640  1
  O  O3440  1  0.56645220  0.63354780  0.01905640  1
  O  O3441  1  0.56645220  0.63354780  0.21905640  1
  O  O3442  1  0.56645220  0.63354780  0.41905640  1
  O  O3443  1  0.56645220  0.63354780  0.61905640  1
  O  O3444  1  0.56645220  0.63354780  0.81905640  1
  O  O3445  1  0.56645220  0.83354780  0.01905640  1
  O  O3446  1  0.56645220  0.83354780  0.21905640  1
  O  O3447  1  0.56645220  0.83354780  0.41905640  1
  O  O3448  1  0.56645220  0.83354780  0.61905640  1
  O  O3449  1  0.56645220  0.83354780  0.81905640  1
  O  O3450  1  0.76645220  0.03354780  0.01905640  1
  O  O3451  1  0.76645220  0.03354780  0.21905640  1
  O  O3452  1  0.76645220  0.03354780  0.41905640  1
  O  O3453  1  0.76645220  0.03354780  0.61905640  1
  O  O3454  1  0.76645220  0.03354780  0.81905640  1
  O  O3455  1  0.76645220  0.23354780  0.01905640  1
  O  O3456  1  0.76645220  0.23354780  0.21905640  1
  O  O3457  1  0.76645220  0.23354780  0.41905640  1
  O  O3458  1  0.76645220  0.23354780  0.61905640  1
  O  O3459  1  0.76645220  0.23354780  0.81905640  1
  O  O3460  1  0.76645220  0.43354780  0.01905640  1
  O  O3461  1  0.76645220  0.43354780  0.21905640  1
  O  O3462  1  0.76645220  0.43354780  0.41905640  1
  O  O3463  1  0.76645220  0.43354780  0.61905640  1
  O  O3464  1  0.76645220  0.43354780  0.81905640  1
  O  O3465  1  0.76645220  0.63354780  0.01905640  1
  O  O3466  1  0.76645220  0.63354780  0.21905640  1
  O  O3467  1  0.76645220  0.63354780  0.41905640  1
  O  O3468  1  0.76645220  0.63354780  0.61905640  1
  O  O3469  1  0.76645220  0.63354780  0.81905640  1
  O  O3470  1  0.76645220  0.83354780  0.01905640  1
  O  O3471  1  0.76645220  0.83354780  0.21905640  1
  O  O3472  1  0.76645220  0.83354780  0.41905640  1
  O  O3473  1  0.76645220  0.83354780  0.61905640  1
  O  O3474  1  0.76645220  0.83354780  0.81905640  1
  O  O3475  1  0.96645220  0.03354780  0.01905640  1
  O  O3476  1  0.96645220  0.03354780  0.21905640  1
  O  O3477  1  0.96645220  0.03354780  0.41905640  1
  O  O3478  1  0.96645220  0.03354780  0.61905640  1
  O  O3479  1  0.96645220  0.03354780  0.81905640  1
  O  O3480  1  0.96645220  0.23354780  0.01905640  1
  O  O3481  1  0.96645220  0.23354780  0.21905640  1
  O  O3482  1  0.96645220  0.23354780  0.41905640  1
  O  O3483  1  0.96645220  0.23354780  0.61905640  1
  O  O3484  1  0.96645220  0.23354780  0.81905640  1
  O  O3485  1  0.96645220  0.43354780  0.01905640  1
  O  O3486  1  0.96645220  0.43354780  0.21905640  1
  O  O3487  1  0.96645220  0.43354780  0.41905640  1
  O  O3488  1  0.96645220  0.43354780  0.61905640  1
  O  O3489  1  0.96645220  0.43354780  0.81905640  1
  O  O3490  1  0.96645220  0.63354780  0.01905640  1
  O  O3491  1  0.96645220  0.63354780  0.21905640  1
  O  O3492  1  0.96645220  0.63354780  0.41905640  1
  O  O3493  1  0.96645220  0.63354780  0.61905640  1
  O  O3494  1  0.96645220  0.63354780  0.81905640  1
  O  O3495  1  0.96645220  0.83354780  0.01905640  1
  O  O3496  1  0.96645220  0.83354780  0.21905640  1
  O  O3497  1  0.96645220  0.83354780  0.41905640  1
  O  O3498  1  0.96645220  0.83354780  0.61905640  1
  O  O3499  1  0.96645220  0.83354780  0.81905640  1
