# generated using pymatgen
data_Li2MgGeO4
_symmetry_space_group_name_H-M   'P 1'
_cell_length_a   29.87461764
_cell_length_b   32.79095772
_cell_length_c   37.71486234
_cell_angle_alpha   90.00000000
_cell_angle_beta   90.00000000
_cell_angle_gamma   90.00000000
_symmetry_Int_Tables_number   1
_chemical_formula_structural   Li2MgGeO4
_chemical_formula_sum   'Li864 Mg432 Ge432 O1728'
_cell_volume   36946.13251807
_cell_formula_units_Z   432
loop_
 _symmetry_equiv_pos_site_id
 _symmetry_equiv_pos_as_xyz
  1  'x, y, z'
loop_
 _atom_site_type_symbol
 _atom_site_label
 _atom_site_symmetry_multiplicity
 _atom_site_fract_x
 _atom_site_fract_y
 _atom_site_fract_z
 _atom_site_occupancy
  Li  Li0  1  0.08343942  0.13874834  0.04182008  1
  Li  Li1  1  0.08343942  0.13874834  0.20848675  1
  Li  Li2  1  0.08343942  0.13874834  0.37515342  1
  Li  Li3  1  0.08343942  0.13874834  0.54182008  1
  Li  Li4  1  0.08343942  0.13874834  0.70848675  1
  Li  Li5  1  0.08343942  0.13874834  0.87515342  1
  Li  Li6  1  0.08343942  0.30541501  0.04182008  1
  Li  Li7  1  0.08343942  0.30541501  0.20848675  1
  Li  Li8  1  0.08343942  0.30541501  0.37515342  1
  Li  Li9  1  0.08343942  0.30541501  0.54182008  1
  Li  Li10  1  0.08343942  0.30541501  0.70848675  1
  Li  Li11  1  0.08343942  0.30541501  0.87515342  1
  Li  Li12  1  0.08343942  0.47208168  0.04182008  1
  Li  Li13  1  0.08343942  0.47208168  0.20848675  1
  Li  Li14  1  0.08343942  0.47208168  0.37515342  1
  Li  Li15  1  0.08343942  0.47208168  0.54182008  1
  Li  Li16  1  0.08343942  0.47208168  0.70848675  1
  Li  Li17  1  0.08343942  0.47208168  0.87515342  1
  Li  Li18  1  0.08343942  0.63874834  0.04182008  1
  Li  Li19  1  0.08343942  0.63874834  0.20848675  1
  Li  Li20  1  0.08343942  0.63874834  0.37515342  1
  Li  Li21  1  0.08343942  0.63874834  0.54182008  1
  Li  Li22  1  0.08343942  0.63874834  0.70848675  1
  Li  Li23  1  0.08343942  0.63874834  0.87515342  1
  Li  Li24  1  0.08343942  0.80541501  0.04182008  1
  Li  Li25  1  0.08343942  0.80541501  0.20848675  1
  Li  Li26  1  0.08343942  0.80541501  0.37515342  1
  Li  Li27  1  0.08343942  0.80541501  0.54182008  1
  Li  Li28  1  0.08343942  0.80541501  0.70848675  1
  Li  Li29  1  0.08343942  0.80541501  0.87515342  1
  Li  Li30  1  0.08343942  0.97208168  0.04182008  1
  Li  Li31  1  0.08343942  0.97208168  0.20848675  1
  Li  Li32  1  0.08343942  0.97208168  0.37515342  1
  Li  Li33  1  0.08343942  0.97208168  0.54182008  1
  Li  Li34  1  0.08343942  0.97208168  0.70848675  1
  Li  Li35  1  0.08343942  0.97208168  0.87515342  1
  Li  Li36  1  0.25010609  0.13874834  0.04182008  1
  Li  Li37  1  0.25010609  0.13874834  0.20848675  1
  Li  Li38  1  0.25010609  0.13874834  0.37515342  1
  Li  Li39  1  0.25010609  0.13874834  0.54182008  1
  Li  Li40  1  0.25010609  0.13874834  0.70848675  1
  Li  Li41  1  0.25010609  0.13874834  0.87515342  1
  Li  Li42  1  0.25010609  0.30541501  0.04182008  1
  Li  Li43  1  0.25010609  0.30541501  0.20848675  1
  Li  Li44  1  0.25010609  0.30541501  0.37515342  1
  Li  Li45  1  0.25010609  0.30541501  0.54182008  1
  Li  Li46  1  0.25010609  0.30541501  0.70848675  1
  Li  Li47  1  0.25010609  0.30541501  0.87515342  1
  Li  Li48  1  0.25010609  0.47208168  0.04182008  1
  Li  Li49  1  0.25010609  0.47208168  0.20848675  1
  Li  Li50  1  0.25010609  0.47208168  0.37515342  1
  Li  Li51  1  0.25010609  0.47208168  0.54182008  1
  Li  Li52  1  0.25010609  0.47208168  0.70848675  1
  Li  Li53  1  0.25010609  0.47208168  0.87515342  1
  Li  Li54  1  0.25010609  0.63874834  0.04182008  1
  Li  Li55  1  0.25010609  0.63874834  0.20848675  1
  Li  Li56  1  0.25010609  0.63874834  0.37515342  1
  Li  Li57  1  0.25010609  0.63874834  0.54182008  1
  Li  Li58  1  0.25010609  0.63874834  0.70848675  1
  Li  Li59  1  0.25010609  0.63874834  0.87515342  1
  Li  Li60  1  0.25010609  0.80541501  0.04182008  1
  Li  Li61  1  0.25010609  0.80541501  0.20848675  1
  Li  Li62  1  0.25010609  0.80541501  0.37515342  1
  Li  Li63  1  0.25010609  0.80541501  0.54182008  1
  Li  Li64  1  0.25010609  0.80541501  0.70848675  1
  Li  Li65  1  0.25010609  0.80541501  0.87515342  1
  Li  Li66  1  0.25010609  0.97208168  0.04182008  1
  Li  Li67  1  0.25010609  0.97208168  0.20848675  1
  Li  Li68  1  0.25010609  0.97208168  0.37515342  1
  Li  Li69  1  0.25010609  0.97208168  0.54182008  1
  Li  Li70  1  0.25010609  0.97208168  0.70848675  1
  Li  Li71  1  0.25010609  0.97208168  0.87515342  1
  Li  Li72  1  0.41677276  0.13874834  0.04182008  1
  Li  Li73  1  0.41677276  0.13874834  0.20848675  1
  Li  Li74  1  0.41677276  0.13874834  0.37515342  1
  Li  Li75  1  0.41677276  0.13874834  0.54182008  1
  Li  Li76  1  0.41677276  0.13874834  0.70848675  1
  Li  Li77  1  0.41677276  0.13874834  0.87515342  1
  Li  Li78  1  0.41677276  0.30541501  0.04182008  1
  Li  Li79  1  0.41677276  0.30541501  0.20848675  1
  Li  Li80  1  0.41677276  0.30541501  0.37515342  1
  Li  Li81  1  0.41677276  0.30541501  0.54182008  1
  Li  Li82  1  0.41677276  0.30541501  0.70848675  1
  Li  Li83  1  0.41677276  0.30541501  0.87515342  1
  Li  Li84  1  0.41677276  0.47208168  0.04182008  1
  Li  Li85  1  0.41677276  0.47208168  0.20848675  1
  Li  Li86  1  0.41677276  0.47208168  0.37515342  1
  Li  Li87  1  0.41677276  0.47208168  0.54182008  1
  Li  Li88  1  0.41677276  0.47208168  0.70848675  1
  Li  Li89  1  0.41677276  0.47208168  0.87515342  1
  Li  Li90  1  0.41677276  0.63874834  0.04182008  1
  Li  Li91  1  0.41677276  0.63874834  0.20848675  1
  Li  Li92  1  0.41677276  0.63874834  0.37515342  1
  Li  Li93  1  0.41677276  0.63874834  0.54182008  1
  Li  Li94  1  0.41677276  0.63874834  0.70848675  1
  Li  Li95  1  0.41677276  0.63874834  0.87515342  1
  Li  Li96  1  0.41677276  0.80541501  0.04182008  1
  Li  Li97  1  0.41677276  0.80541501  0.20848675  1
  Li  Li98  1  0.41677276  0.80541501  0.37515342  1
  Li  Li99  1  0.41677276  0.80541501  0.54182008  1
  Li  Li100  1  0.41677276  0.80541501  0.70848675  1
  Li  Li101  1  0.41677276  0.80541501  0.87515342  1
  Li  Li102  1  0.41677276  0.97208168  0.04182008  1
  Li  Li103  1  0.41677276  0.97208168  0.20848675  1
  Li  Li104  1  0.41677276  0.97208168  0.37515342  1
  Li  Li105  1  0.41677276  0.97208168  0.54182008  1
  Li  Li106  1  0.41677276  0.97208168  0.70848675  1
  Li  Li107  1  0.41677276  0.97208168  0.87515342  1
  Li  Li108  1  0.58343943  0.13874834  0.04182008  1
  Li  Li109  1  0.58343943  0.13874834  0.20848675  1
  Li  Li110  1  0.58343943  0.13874834  0.37515342  1
  Li  Li111  1  0.58343943  0.13874834  0.54182008  1
  Li  Li112  1  0.58343943  0.13874834  0.70848675  1
  Li  Li113  1  0.58343943  0.13874834  0.87515342  1
  Li  Li114  1  0.58343943  0.30541501  0.04182008  1
  Li  Li115  1  0.58343943  0.30541501  0.20848675  1
  Li  Li116  1  0.58343943  0.30541501  0.37515342  1
  Li  Li117  1  0.58343943  0.30541501  0.54182008  1
  Li  Li118  1  0.58343943  0.30541501  0.70848675  1
  Li  Li119  1  0.58343943  0.30541501  0.87515342  1
  Li  Li120  1  0.58343943  0.47208168  0.04182008  1
  Li  Li121  1  0.58343943  0.47208168  0.20848675  1
  Li  Li122  1  0.58343943  0.47208168  0.37515342  1
  Li  Li123  1  0.58343943  0.47208168  0.54182008  1
  Li  Li124  1  0.58343943  0.47208168  0.70848675  1
  Li  Li125  1  0.58343943  0.47208168  0.87515342  1
  Li  Li126  1  0.58343943  0.63874834  0.04182008  1
  Li  Li127  1  0.58343943  0.63874834  0.20848675  1
  Li  Li128  1  0.58343943  0.63874834  0.37515342  1
  Li  Li129  1  0.58343943  0.63874834  0.54182008  1
  Li  Li130  1  0.58343943  0.63874834  0.70848675  1
  Li  Li131  1  0.58343943  0.63874834  0.87515342  1
  Li  Li132  1  0.58343943  0.80541501  0.04182008  1
  Li  Li133  1  0.58343943  0.80541501  0.20848675  1
  Li  Li134  1  0.58343943  0.80541501  0.37515342  1
  Li  Li135  1  0.58343943  0.80541501  0.54182008  1
  Li  Li136  1  0.58343943  0.80541501  0.70848675  1
  Li  Li137  1  0.58343943  0.80541501  0.87515342  1
  Li  Li138  1  0.58343943  0.97208168  0.04182008  1
  Li  Li139  1  0.58343943  0.97208168  0.20848675  1
  Li  Li140  1  0.58343943  0.97208168  0.37515342  1
  Li  Li141  1  0.58343943  0.97208168  0.54182008  1
  Li  Li142  1  0.58343943  0.97208168  0.70848675  1
  Li  Li143  1  0.58343943  0.97208168  0.87515342  1
  Li  Li144  1  0.75010609  0.13874834  0.04182008  1
  Li  Li145  1  0.75010609  0.13874834  0.20848675  1
  Li  Li146  1  0.75010609  0.13874834  0.37515342  1
  Li  Li147  1  0.75010609  0.13874834  0.54182008  1
  Li  Li148  1  0.75010609  0.13874834  0.70848675  1
  Li  Li149  1  0.75010609  0.13874834  0.87515342  1
  Li  Li150  1  0.75010609  0.30541501  0.04182008  1
  Li  Li151  1  0.75010609  0.30541501  0.20848675  1
  Li  Li152  1  0.75010609  0.30541501  0.37515342  1
  Li  Li153  1  0.75010609  0.30541501  0.54182008  1
  Li  Li154  1  0.75010609  0.30541501  0.70848675  1
  Li  Li155  1  0.75010609  0.30541501  0.87515342  1
  Li  Li156  1  0.75010609  0.47208168  0.04182008  1
  Li  Li157  1  0.75010609  0.47208168  0.20848675  1
  Li  Li158  1  0.75010609  0.47208168  0.37515342  1
  Li  Li159  1  0.75010609  0.47208168  0.54182008  1
  Li  Li160  1  0.75010609  0.47208168  0.70848675  1
  Li  Li161  1  0.75010609  0.47208168  0.87515342  1
  Li  Li162  1  0.75010609  0.63874834  0.04182008  1
  Li  Li163  1  0.75010609  0.63874834  0.20848675  1
  Li  Li164  1  0.75010609  0.63874834  0.37515342  1
  Li  Li165  1  0.75010609  0.63874834  0.54182008  1
  Li  Li166  1  0.75010609  0.63874834  0.70848675  1
  Li  Li167  1  0.75010609  0.63874834  0.87515342  1
  Li  Li168  1  0.75010609  0.80541501  0.04182008  1
  Li  Li169  1  0.75010609  0.80541501  0.20848675  1
  Li  Li170  1  0.75010609  0.80541501  0.37515342  1
  Li  Li171  1  0.75010609  0.80541501  0.54182008  1
  Li  Li172  1  0.75010609  0.80541501  0.70848675  1
  Li  Li173  1  0.75010609  0.80541501  0.87515342  1
  Li  Li174  1  0.75010609  0.97208168  0.04182008  1
  Li  Li175  1  0.75010609  0.97208168  0.20848675  1
  Li  Li176  1  0.75010609  0.97208168  0.37515342  1
  Li  Li177  1  0.75010609  0.97208168  0.54182008  1
  Li  Li178  1  0.75010609  0.97208168  0.70848675  1
  Li  Li179  1  0.75010609  0.97208168  0.87515342  1
  Li  Li180  1  0.91677276  0.13874834  0.04182008  1
  Li  Li181  1  0.91677276  0.13874834  0.20848675  1
  Li  Li182  1  0.91677276  0.13874834  0.37515342  1
  Li  Li183  1  0.91677276  0.13874834  0.54182008  1
  Li  Li184  1  0.91677276  0.13874834  0.70848675  1
  Li  Li185  1  0.91677276  0.13874834  0.87515342  1
  Li  Li186  1  0.91677276  0.30541501  0.04182008  1
  Li  Li187  1  0.91677276  0.30541501  0.20848675  1
  Li  Li188  1  0.91677276  0.30541501  0.37515342  1
  Li  Li189  1  0.91677276  0.30541501  0.54182008  1
  Li  Li190  1  0.91677276  0.30541501  0.70848675  1
  Li  Li191  1  0.91677276  0.30541501  0.87515342  1
  Li  Li192  1  0.91677276  0.47208168  0.04182008  1
  Li  Li193  1  0.91677276  0.47208168  0.20848675  1
  Li  Li194  1  0.91677276  0.47208168  0.37515342  1
  Li  Li195  1  0.91677276  0.47208168  0.54182008  1
  Li  Li196  1  0.91677276  0.47208168  0.70848675  1
  Li  Li197  1  0.91677276  0.47208168  0.87515342  1
  Li  Li198  1  0.91677276  0.63874834  0.04182008  1
  Li  Li199  1  0.91677276  0.63874834  0.20848675  1
  Li  Li200  1  0.91677276  0.63874834  0.37515342  1
  Li  Li201  1  0.91677276  0.63874834  0.54182008  1
  Li  Li202  1  0.91677276  0.63874834  0.70848675  1
  Li  Li203  1  0.91677276  0.63874834  0.87515342  1
  Li  Li204  1  0.91677276  0.80541501  0.04182008  1
  Li  Li205  1  0.91677276  0.80541501  0.20848675  1
  Li  Li206  1  0.91677276  0.80541501  0.37515342  1
  Li  Li207  1  0.91677276  0.80541501  0.54182008  1
  Li  Li208  1  0.91677276  0.80541501  0.70848675  1
  Li  Li209  1  0.91677276  0.80541501  0.87515342  1
  Li  Li210  1  0.91677276  0.97208168  0.04182008  1
  Li  Li211  1  0.91677276  0.97208168  0.20848675  1
  Li  Li212  1  0.91677276  0.97208168  0.37515342  1
  Li  Li213  1  0.91677276  0.97208168  0.54182008  1
  Li  Li214  1  0.91677276  0.97208168  0.70848675  1
  Li  Li215  1  0.91677276  0.97208168  0.87515342  1
  Li  Li216  1  0.00010609  0.02791832  0.04151325  1
  Li  Li217  1  0.00010609  0.02791832  0.20817992  1
  Li  Li218  1  0.00010609  0.02791832  0.37484658  1
  Li  Li219  1  0.00010609  0.02791832  0.54151325  1
  Li  Li220  1  0.00010609  0.02791832  0.70817992  1
  Li  Li221  1  0.00010609  0.02791832  0.87484658  1
  Li  Li222  1  0.00010609  0.19458499  0.04151325  1
  Li  Li223  1  0.00010609  0.19458499  0.20817992  1
  Li  Li224  1  0.00010609  0.19458499  0.37484658  1
  Li  Li225  1  0.00010609  0.19458499  0.54151325  1
  Li  Li226  1  0.00010609  0.19458499  0.70817992  1
  Li  Li227  1  0.00010609  0.19458499  0.87484658  1
  Li  Li228  1  0.00010609  0.36125166  0.04151325  1
  Li  Li229  1  0.00010609  0.36125166  0.20817992  1
  Li  Li230  1  0.00010609  0.36125166  0.37484658  1
  Li  Li231  1  0.00010609  0.36125166  0.54151325  1
  Li  Li232  1  0.00010609  0.36125166  0.70817992  1
  Li  Li233  1  0.00010609  0.36125166  0.87484658  1
  Li  Li234  1  0.00010609  0.52791832  0.04151325  1
  Li  Li235  1  0.00010609  0.52791832  0.20817992  1
  Li  Li236  1  0.00010609  0.52791832  0.37484658  1
  Li  Li237  1  0.00010609  0.52791832  0.54151325  1
  Li  Li238  1  0.00010609  0.52791832  0.70817992  1
  Li  Li239  1  0.00010609  0.52791832  0.87484658  1
  Li  Li240  1  0.00010609  0.69458499  0.04151325  1
  Li  Li241  1  0.00010609  0.69458499  0.20817992  1
  Li  Li242  1  0.00010609  0.69458499  0.37484658  1
  Li  Li243  1  0.00010609  0.69458499  0.54151325  1
  Li  Li244  1  0.00010609  0.69458499  0.70817992  1
  Li  Li245  1  0.00010609  0.69458499  0.87484658  1
  Li  Li246  1  0.00010609  0.86125166  0.04151325  1
  Li  Li247  1  0.00010609  0.86125166  0.20817992  1
  Li  Li248  1  0.00010609  0.86125166  0.37484658  1
  Li  Li249  1  0.00010609  0.86125166  0.54151325  1
  Li  Li250  1  0.00010609  0.86125166  0.70817992  1
  Li  Li251  1  0.00010609  0.86125166  0.87484658  1
  Li  Li252  1  0.16677276  0.02791832  0.04151325  1
  Li  Li253  1  0.16677276  0.02791832  0.20817992  1
  Li  Li254  1  0.16677276  0.02791832  0.37484658  1
  Li  Li255  1  0.16677276  0.02791832  0.54151325  1
  Li  Li256  1  0.16677276  0.02791832  0.70817992  1
  Li  Li257  1  0.16677276  0.02791832  0.87484658  1
  Li  Li258  1  0.16677276  0.19458499  0.04151325  1
  Li  Li259  1  0.16677276  0.19458499  0.20817992  1
  Li  Li260  1  0.16677276  0.19458499  0.37484658  1
  Li  Li261  1  0.16677276  0.19458499  0.54151325  1
  Li  Li262  1  0.16677276  0.19458499  0.70817992  1
  Li  Li263  1  0.16677276  0.19458499  0.87484658  1
  Li  Li264  1  0.16677276  0.36125166  0.04151325  1
  Li  Li265  1  0.16677276  0.36125166  0.20817992  1
  Li  Li266  1  0.16677276  0.36125166  0.37484658  1
  Li  Li267  1  0.16677276  0.36125166  0.54151325  1
  Li  Li268  1  0.16677276  0.36125166  0.70817992  1
  Li  Li269  1  0.16677276  0.36125166  0.87484658  1
  Li  Li270  1  0.16677276  0.52791832  0.04151325  1
  Li  Li271  1  0.16677276  0.52791832  0.20817992  1
  Li  Li272  1  0.16677276  0.52791832  0.37484658  1
  Li  Li273  1  0.16677276  0.52791832  0.54151325  1
  Li  Li274  1  0.16677276  0.52791832  0.70817992  1
  Li  Li275  1  0.16677276  0.52791832  0.87484658  1
  Li  Li276  1  0.16677276  0.69458499  0.04151325  1
  Li  Li277  1  0.16677276  0.69458499  0.20817992  1
  Li  Li278  1  0.16677276  0.69458499  0.37484658  1
  Li  Li279  1  0.16677276  0.69458499  0.54151325  1
  Li  Li280  1  0.16677276  0.69458499  0.70817992  1
  Li  Li281  1  0.16677276  0.69458499  0.87484658  1
  Li  Li282  1  0.16677276  0.86125166  0.04151325  1
  Li  Li283  1  0.16677276  0.86125166  0.20817992  1
  Li  Li284  1  0.16677276  0.86125166  0.37484658  1
  Li  Li285  1  0.16677276  0.86125166  0.54151325  1
  Li  Li286  1  0.16677276  0.86125166  0.70817992  1
  Li  Li287  1  0.16677276  0.86125166  0.87484658  1
  Li  Li288  1  0.33343943  0.02791832  0.04151325  1
  Li  Li289  1  0.33343943  0.02791832  0.20817992  1
  Li  Li290  1  0.33343943  0.02791832  0.37484658  1
  Li  Li291  1  0.33343943  0.02791832  0.54151325  1
  Li  Li292  1  0.33343943  0.02791832  0.70817992  1
  Li  Li293  1  0.33343943  0.02791832  0.87484658  1
  Li  Li294  1  0.33343943  0.19458499  0.04151325  1
  Li  Li295  1  0.33343943  0.19458499  0.20817992  1
  Li  Li296  1  0.33343943  0.19458499  0.37484658  1
  Li  Li297  1  0.33343943  0.19458499  0.54151325  1
  Li  Li298  1  0.33343943  0.19458499  0.70817992  1
  Li  Li299  1  0.33343943  0.19458499  0.87484658  1
  Li  Li300  1  0.33343943  0.36125166  0.04151325  1
  Li  Li301  1  0.33343943  0.36125166  0.20817992  1
  Li  Li302  1  0.33343943  0.36125166  0.37484658  1
  Li  Li303  1  0.33343943  0.36125166  0.54151325  1
  Li  Li304  1  0.33343943  0.36125166  0.70817992  1
  Li  Li305  1  0.33343943  0.36125166  0.87484658  1
  Li  Li306  1  0.33343943  0.52791832  0.04151325  1
  Li  Li307  1  0.33343943  0.52791832  0.20817992  1
  Li  Li308  1  0.33343943  0.52791832  0.37484658  1
  Li  Li309  1  0.33343943  0.52791832  0.54151325  1
  Li  Li310  1  0.33343943  0.52791832  0.70817992  1
  Li  Li311  1  0.33343943  0.52791832  0.87484658  1
  Li  Li312  1  0.33343943  0.69458499  0.04151325  1
  Li  Li313  1  0.33343943  0.69458499  0.20817992  1
  Li  Li314  1  0.33343943  0.69458499  0.37484658  1
  Li  Li315  1  0.33343943  0.69458499  0.54151325  1
  Li  Li316  1  0.33343943  0.69458499  0.70817992  1
  Li  Li317  1  0.33343943  0.69458499  0.87484658  1
  Li  Li318  1  0.33343943  0.86125166  0.04151325  1
  Li  Li319  1  0.33343943  0.86125166  0.20817992  1
  Li  Li320  1  0.33343943  0.86125166  0.37484658  1
  Li  Li321  1  0.33343943  0.86125166  0.54151325  1
  Li  Li322  1  0.33343943  0.86125166  0.70817992  1
  Li  Li323  1  0.33343943  0.86125166  0.87484658  1
  Li  Li324  1  0.50010609  0.02791832  0.04151325  1
  Li  Li325  1  0.50010609  0.02791832  0.20817992  1
  Li  Li326  1  0.50010609  0.02791832  0.37484658  1
  Li  Li327  1  0.50010609  0.02791832  0.54151325  1
  Li  Li328  1  0.50010609  0.02791832  0.70817992  1
  Li  Li329  1  0.50010609  0.02791832  0.87484658  1
  Li  Li330  1  0.50010609  0.19458499  0.04151325  1
  Li  Li331  1  0.50010609  0.19458499  0.20817992  1
  Li  Li332  1  0.50010609  0.19458499  0.37484658  1
  Li  Li333  1  0.50010609  0.19458499  0.54151325  1
  Li  Li334  1  0.50010609  0.19458499  0.70817992  1
  Li  Li335  1  0.50010609  0.19458499  0.87484658  1
  Li  Li336  1  0.50010609  0.36125166  0.04151325  1
  Li  Li337  1  0.50010609  0.36125166  0.20817992  1
  Li  Li338  1  0.50010609  0.36125166  0.37484658  1
  Li  Li339  1  0.50010609  0.36125166  0.54151325  1
  Li  Li340  1  0.50010609  0.36125166  0.70817992  1
  Li  Li341  1  0.50010609  0.36125166  0.87484658  1
  Li  Li342  1  0.50010609  0.52791832  0.04151325  1
  Li  Li343  1  0.50010609  0.52791832  0.20817992  1
  Li  Li344  1  0.50010609  0.52791832  0.37484658  1
  Li  Li345  1  0.50010609  0.52791832  0.54151325  1
  Li  Li346  1  0.50010609  0.52791832  0.70817992  1
  Li  Li347  1  0.50010609  0.52791832  0.87484658  1
  Li  Li348  1  0.50010609  0.69458499  0.04151325  1
  Li  Li349  1  0.50010609  0.69458499  0.20817992  1
  Li  Li350  1  0.50010609  0.69458499  0.37484658  1
  Li  Li351  1  0.50010609  0.69458499  0.54151325  1
  Li  Li352  1  0.50010609  0.69458499  0.70817992  1
  Li  Li353  1  0.50010609  0.69458499  0.87484658  1
  Li  Li354  1  0.50010609  0.86125166  0.04151325  1
  Li  Li355  1  0.50010609  0.86125166  0.20817992  1
  Li  Li356  1  0.50010609  0.86125166  0.37484658  1
  Li  Li357  1  0.50010609  0.86125166  0.54151325  1
  Li  Li358  1  0.50010609  0.86125166  0.70817992  1
  Li  Li359  1  0.50010609  0.86125166  0.87484658  1
  Li  Li360  1  0.66677276  0.02791832  0.04151325  1
  Li  Li361  1  0.66677276  0.02791832  0.20817992  1
  Li  Li362  1  0.66677276  0.02791832  0.37484658  1
  Li  Li363  1  0.66677276  0.02791832  0.54151325  1
  Li  Li364  1  0.66677276  0.02791832  0.70817992  1
  Li  Li365  1  0.66677276  0.02791832  0.87484658  1
  Li  Li366  1  0.66677276  0.19458499  0.04151325  1
  Li  Li367  1  0.66677276  0.19458499  0.20817992  1
  Li  Li368  1  0.66677276  0.19458499  0.37484658  1
  Li  Li369  1  0.66677276  0.19458499  0.54151325  1
  Li  Li370  1  0.66677276  0.19458499  0.70817992  1
  Li  Li371  1  0.66677276  0.19458499  0.87484658  1
  Li  Li372  1  0.66677276  0.36125166  0.04151325  1
  Li  Li373  1  0.66677276  0.36125166  0.20817992  1
  Li  Li374  1  0.66677276  0.36125166  0.37484658  1
  Li  Li375  1  0.66677276  0.36125166  0.54151325  1
  Li  Li376  1  0.66677276  0.36125166  0.70817992  1
  Li  Li377  1  0.66677276  0.36125166  0.87484658  1
  Li  Li378  1  0.66677276  0.52791832  0.04151325  1
  Li  Li379  1  0.66677276  0.52791832  0.20817992  1
  Li  Li380  1  0.66677276  0.52791832  0.37484658  1
  Li  Li381  1  0.66677276  0.52791832  0.54151325  1
  Li  Li382  1  0.66677276  0.52791832  0.70817992  1
  Li  Li383  1  0.66677276  0.52791832  0.87484658  1
  Li  Li384  1  0.66677276  0.69458499  0.04151325  1
  Li  Li385  1  0.66677276  0.69458499  0.20817992  1
  Li  Li386  1  0.66677276  0.69458499  0.37484658  1
  Li  Li387  1  0.66677276  0.69458499  0.54151325  1
  Li  Li388  1  0.66677276  0.69458499  0.70817992  1
  Li  Li389  1  0.66677276  0.69458499  0.87484658  1
  Li  Li390  1  0.66677276  0.86125166  0.04151325  1
  Li  Li391  1  0.66677276  0.86125166  0.20817992  1
  Li  Li392  1  0.66677276  0.86125166  0.37484658  1
  Li  Li393  1  0.66677276  0.86125166  0.54151325  1
  Li  Li394  1  0.66677276  0.86125166  0.70817992  1
  Li  Li395  1  0.66677276  0.86125166  0.87484658  1
  Li  Li396  1  0.83343943  0.02791832  0.04151325  1
  Li  Li397  1  0.83343943  0.02791832  0.20817992  1
  Li  Li398  1  0.83343943  0.02791832  0.37484658  1
  Li  Li399  1  0.83343943  0.02791832  0.54151325  1
  Li  Li400  1  0.83343943  0.02791832  0.70817992  1
  Li  Li401  1  0.83343943  0.02791832  0.87484658  1
  Li  Li402  1  0.83343943  0.19458499  0.04151325  1
  Li  Li403  1  0.83343943  0.19458499  0.20817992  1
  Li  Li404  1  0.83343943  0.19458499  0.37484658  1
  Li  Li405  1  0.83343943  0.19458499  0.54151325  1
  Li  Li406  1  0.83343943  0.19458499  0.70817992  1
  Li  Li407  1  0.83343943  0.19458499  0.87484658  1
  Li  Li408  1  0.83343943  0.36125166  0.04151325  1
  Li  Li409  1  0.83343943  0.36125166  0.20817992  1
  Li  Li410  1  0.83343943  0.36125166  0.37484658  1
  Li  Li411  1  0.83343943  0.36125166  0.54151325  1
  Li  Li412  1  0.83343943  0.36125166  0.70817992  1
  Li  Li413  1  0.83343943  0.36125166  0.87484658  1
  Li  Li414  1  0.83343943  0.52791832  0.04151325  1
  Li  Li415  1  0.83343943  0.52791832  0.20817992  1
  Li  Li416  1  0.83343943  0.52791832  0.37484658  1
  Li  Li417  1  0.83343943  0.52791832  0.54151325  1
  Li  Li418  1  0.83343943  0.52791832  0.70817992  1
  Li  Li419  1  0.83343943  0.52791832  0.87484658  1
  Li  Li420  1  0.83343943  0.69458499  0.04151325  1
  Li  Li421  1  0.83343943  0.69458499  0.20817992  1
  Li  Li422  1  0.83343943  0.69458499  0.37484658  1
  Li  Li423  1  0.83343943  0.69458499  0.54151325  1
  Li  Li424  1  0.83343943  0.69458499  0.70817992  1
  Li  Li425  1  0.83343943  0.69458499  0.87484658  1
  Li  Li426  1  0.83343943  0.86125166  0.04151325  1
  Li  Li427  1  0.83343943  0.86125166  0.20817992  1
  Li  Li428  1  0.83343943  0.86125166  0.37484658  1
  Li  Li429  1  0.83343943  0.86125166  0.54151325  1
  Li  Li430  1  0.83343943  0.86125166  0.70817992  1
  Li  Li431  1  0.83343943  0.86125166  0.87484658  1
  Li  Li432  1  0.00010609  0.02791832  0.12515342  1
  Li  Li433  1  0.00010609  0.02791832  0.29182008  1
  Li  Li434  1  0.00010609  0.02791832  0.45848675  1
  Li  Li435  1  0.00010609  0.02791832  0.62515342  1
  Li  Li436  1  0.00010609  0.02791832  0.79182008  1
  Li  Li437  1  0.00010609  0.02791832  0.95848675  1
  Li  Li438  1  0.00010609  0.19458499  0.12515342  1
  Li  Li439  1  0.00010609  0.19458499  0.29182008  1
  Li  Li440  1  0.00010609  0.19458499  0.45848675  1
  Li  Li441  1  0.00010609  0.19458499  0.62515342  1
  Li  Li442  1  0.00010609  0.19458499  0.79182008  1
  Li  Li443  1  0.00010609  0.19458499  0.95848675  1
  Li  Li444  1  0.00010609  0.36125166  0.12515342  1
  Li  Li445  1  0.00010609  0.36125166  0.29182008  1
  Li  Li446  1  0.00010609  0.36125166  0.45848675  1
  Li  Li447  1  0.00010609  0.36125166  0.62515342  1
  Li  Li448  1  0.00010609  0.36125166  0.79182008  1
  Li  Li449  1  0.00010609  0.36125166  0.95848675  1
  Li  Li450  1  0.00010609  0.52791832  0.12515342  1
  Li  Li451  1  0.00010609  0.52791832  0.29182008  1
  Li  Li452  1  0.00010609  0.52791832  0.45848675  1
  Li  Li453  1  0.00010609  0.52791832  0.62515342  1
  Li  Li454  1  0.00010609  0.52791832  0.79182008  1
  Li  Li455  1  0.00010609  0.52791832  0.95848675  1
  Li  Li456  1  0.00010609  0.69458499  0.12515342  1
  Li  Li457  1  0.00010609  0.69458499  0.29182008  1
  Li  Li458  1  0.00010609  0.69458499  0.45848675  1
  Li  Li459  1  0.00010609  0.69458499  0.62515342  1
  Li  Li460  1  0.00010609  0.69458499  0.79182008  1
  Li  Li461  1  0.00010609  0.69458499  0.95848675  1
  Li  Li462  1  0.00010609  0.86125166  0.12515342  1
  Li  Li463  1  0.00010609  0.86125166  0.29182008  1
  Li  Li464  1  0.00010609  0.86125166  0.45848675  1
  Li  Li465  1  0.00010609  0.86125166  0.62515342  1
  Li  Li466  1  0.00010609  0.86125166  0.79182008  1
  Li  Li467  1  0.00010609  0.86125166  0.95848675  1
  Li  Li468  1  0.16677276  0.02791832  0.12515342  1
  Li  Li469  1  0.16677276  0.02791832  0.29182008  1
  Li  Li470  1  0.16677276  0.02791832  0.45848675  1
  Li  Li471  1  0.16677276  0.02791832  0.62515342  1
  Li  Li472  1  0.16677276  0.02791832  0.79182008  1
  Li  Li473  1  0.16677276  0.02791832  0.95848675  1
  Li  Li474  1  0.16677276  0.19458499  0.12515342  1
  Li  Li475  1  0.16677276  0.19458499  0.29182008  1
  Li  Li476  1  0.16677276  0.19458499  0.45848675  1
  Li  Li477  1  0.16677276  0.19458499  0.62515342  1
  Li  Li478  1  0.16677276  0.19458499  0.79182008  1
  Li  Li479  1  0.16677276  0.19458499  0.95848675  1
  Li  Li480  1  0.16677276  0.36125166  0.12515342  1
  Li  Li481  1  0.16677276  0.36125166  0.29182008  1
  Li  Li482  1  0.16677276  0.36125166  0.45848675  1
  Li  Li483  1  0.16677276  0.36125166  0.62515342  1
  Li  Li484  1  0.16677276  0.36125166  0.79182008  1
  Li  Li485  1  0.16677276  0.36125166  0.95848675  1
  Li  Li486  1  0.16677276  0.52791832  0.12515342  1
  Li  Li487  1  0.16677276  0.52791832  0.29182008  1
  Li  Li488  1  0.16677276  0.52791832  0.45848675  1
  Li  Li489  1  0.16677276  0.52791832  0.62515342  1
  Li  Li490  1  0.16677276  0.52791832  0.79182008  1
  Li  Li491  1  0.16677276  0.52791832  0.95848675  1
  Li  Li492  1  0.16677276  0.69458499  0.12515342  1
  Li  Li493  1  0.16677276  0.69458499  0.29182008  1
  Li  Li494  1  0.16677276  0.69458499  0.45848675  1
  Li  Li495  1  0.16677276  0.69458499  0.62515342  1
  Li  Li496  1  0.16677276  0.69458499  0.79182008  1
  Li  Li497  1  0.16677276  0.69458499  0.95848675  1
  Li  Li498  1  0.16677276  0.86125166  0.12515342  1
  Li  Li499  1  0.16677276  0.86125166  0.29182008  1
  Li  Li500  1  0.16677276  0.86125166  0.45848675  1
  Li  Li501  1  0.16677276  0.86125166  0.62515342  1
  Li  Li502  1  0.16677276  0.86125166  0.79182008  1
  Li  Li503  1  0.16677276  0.86125166  0.95848675  1
  Li  Li504  1  0.33343943  0.02791832  0.12515342  1
  Li  Li505  1  0.33343943  0.02791832  0.29182008  1
  Li  Li506  1  0.33343943  0.02791832  0.45848675  1
  Li  Li507  1  0.33343943  0.02791832  0.62515342  1
  Li  Li508  1  0.33343943  0.02791832  0.79182008  1
  Li  Li509  1  0.33343943  0.02791832  0.95848675  1
  Li  Li510  1  0.33343943  0.19458499  0.12515342  1
  Li  Li511  1  0.33343943  0.19458499  0.29182008  1
  Li  Li512  1  0.33343943  0.19458499  0.45848675  1
  Li  Li513  1  0.33343943  0.19458499  0.62515342  1
  Li  Li514  1  0.33343943  0.19458499  0.79182008  1
  Li  Li515  1  0.33343943  0.19458499  0.95848675  1
  Li  Li516  1  0.33343943  0.36125166  0.12515342  1
  Li  Li517  1  0.33343943  0.36125166  0.29182008  1
  Li  Li518  1  0.33343943  0.36125166  0.45848675  1
  Li  Li519  1  0.33343943  0.36125166  0.62515342  1
  Li  Li520  1  0.33343943  0.36125166  0.79182008  1
  Li  Li521  1  0.33343943  0.36125166  0.95848675  1
  Li  Li522  1  0.33343943  0.52791832  0.12515342  1
  Li  Li523  1  0.33343943  0.52791832  0.29182008  1
  Li  Li524  1  0.33343943  0.52791832  0.45848675  1
  Li  Li525  1  0.33343943  0.52791832  0.62515342  1
  Li  Li526  1  0.33343943  0.52791832  0.79182008  1
  Li  Li527  1  0.33343943  0.52791832  0.95848675  1
  Li  Li528  1  0.33343943  0.69458499  0.12515342  1
  Li  Li529  1  0.33343943  0.69458499  0.29182008  1
  Li  Li530  1  0.33343943  0.69458499  0.45848675  1
  Li  Li531  1  0.33343943  0.69458499  0.62515342  1
  Li  Li532  1  0.33343943  0.69458499  0.79182008  1
  Li  Li533  1  0.33343943  0.69458499  0.95848675  1
  Li  Li534  1  0.33343943  0.86125166  0.12515342  1
  Li  Li535  1  0.33343943  0.86125166  0.29182008  1
  Li  Li536  1  0.33343943  0.86125166  0.45848675  1
  Li  Li537  1  0.33343943  0.86125166  0.62515342  1
  Li  Li538  1  0.33343943  0.86125166  0.79182008  1
  Li  Li539  1  0.33343943  0.86125166  0.95848675  1
  Li  Li540  1  0.50010609  0.02791832  0.12515342  1
  Li  Li541  1  0.50010609  0.02791832  0.29182008  1
  Li  Li542  1  0.50010609  0.02791832  0.45848675  1
  Li  Li543  1  0.50010609  0.02791832  0.62515342  1
  Li  Li544  1  0.50010609  0.02791832  0.79182008  1
  Li  Li545  1  0.50010609  0.02791832  0.95848675  1
  Li  Li546  1  0.50010609  0.19458499  0.12515342  1
  Li  Li547  1  0.50010609  0.19458499  0.29182008  1
  Li  Li548  1  0.50010609  0.19458499  0.45848675  1
  Li  Li549  1  0.50010609  0.19458499  0.62515342  1
  Li  Li550  1  0.50010609  0.19458499  0.79182008  1
  Li  Li551  1  0.50010609  0.19458499  0.95848675  1
  Li  Li552  1  0.50010609  0.36125166  0.12515342  1
  Li  Li553  1  0.50010609  0.36125166  0.29182008  1
  Li  Li554  1  0.50010609  0.36125166  0.45848675  1
  Li  Li555  1  0.50010609  0.36125166  0.62515342  1
  Li  Li556  1  0.50010609  0.36125166  0.79182008  1
  Li  Li557  1  0.50010609  0.36125166  0.95848675  1
  Li  Li558  1  0.50010609  0.52791832  0.12515342  1
  Li  Li559  1  0.50010609  0.52791832  0.29182008  1
  Li  Li560  1  0.50010609  0.52791832  0.45848675  1
  Li  Li561  1  0.50010609  0.52791832  0.62515342  1
  Li  Li562  1  0.50010609  0.52791832  0.79182008  1
  Li  Li563  1  0.50010609  0.52791832  0.95848675  1
  Li  Li564  1  0.50010609  0.69458499  0.12515342  1
  Li  Li565  1  0.50010609  0.69458499  0.29182008  1
  Li  Li566  1  0.50010609  0.69458499  0.45848675  1
  Li  Li567  1  0.50010609  0.69458499  0.62515342  1
  Li  Li568  1  0.50010609  0.69458499  0.79182008  1
  Li  Li569  1  0.50010609  0.69458499  0.95848675  1
  Li  Li570  1  0.50010609  0.86125166  0.12515342  1
  Li  Li571  1  0.50010609  0.86125166  0.29182008  1
  Li  Li572  1  0.50010609  0.86125166  0.45848675  1
  Li  Li573  1  0.50010609  0.86125166  0.62515342  1
  Li  Li574  1  0.50010609  0.86125166  0.79182008  1
  Li  Li575  1  0.50010609  0.86125166  0.95848675  1
  Li  Li576  1  0.66677276  0.02791832  0.12515342  1
  Li  Li577  1  0.66677276  0.02791832  0.29182008  1
  Li  Li578  1  0.66677276  0.02791832  0.45848675  1
  Li  Li579  1  0.66677276  0.02791832  0.62515342  1
  Li  Li580  1  0.66677276  0.02791832  0.79182008  1
  Li  Li581  1  0.66677276  0.02791832  0.95848675  1
  Li  Li582  1  0.66677276  0.19458499  0.12515342  1
  Li  Li583  1  0.66677276  0.19458499  0.29182008  1
  Li  Li584  1  0.66677276  0.19458499  0.45848675  1
  Li  Li585  1  0.66677276  0.19458499  0.62515342  1
  Li  Li586  1  0.66677276  0.19458499  0.79182008  1
  Li  Li587  1  0.66677276  0.19458499  0.95848675  1
  Li  Li588  1  0.66677276  0.36125166  0.12515342  1
  Li  Li589  1  0.66677276  0.36125166  0.29182008  1
  Li  Li590  1  0.66677276  0.36125166  0.45848675  1
  Li  Li591  1  0.66677276  0.36125166  0.62515342  1
  Li  Li592  1  0.66677276  0.36125166  0.79182008  1
  Li  Li593  1  0.66677276  0.36125166  0.95848675  1
  Li  Li594  1  0.66677276  0.52791832  0.12515342  1
  Li  Li595  1  0.66677276  0.52791832  0.29182008  1
  Li  Li596  1  0.66677276  0.52791832  0.45848675  1
  Li  Li597  1  0.66677276  0.52791832  0.62515342  1
  Li  Li598  1  0.66677276  0.52791832  0.79182008  1
  Li  Li599  1  0.66677276  0.52791832  0.95848675  1
  Li  Li600  1  0.66677276  0.69458499  0.12515342  1
  Li  Li601  1  0.66677276  0.69458499  0.29182008  1
  Li  Li602  1  0.66677276  0.69458499  0.45848675  1
  Li  Li603  1  0.66677276  0.69458499  0.62515342  1
  Li  Li604  1  0.66677276  0.69458499  0.79182008  1
  Li  Li605  1  0.66677276  0.69458499  0.95848675  1
  Li  Li606  1  0.66677276  0.86125166  0.12515342  1
  Li  Li607  1  0.66677276  0.86125166  0.29182008  1
  Li  Li608  1  0.66677276  0.86125166  0.45848675  1
  Li  Li609  1  0.66677276  0.86125166  0.62515342  1
  Li  Li610  1  0.66677276  0.86125166  0.79182008  1
  Li  Li611  1  0.66677276  0.86125166  0.95848675  1
  Li  Li612  1  0.83343943  0.02791832  0.12515342  1
  Li  Li613  1  0.83343943  0.02791832  0.29182008  1
  Li  Li614  1  0.83343943  0.02791832  0.45848675  1
  Li  Li615  1  0.83343943  0.02791832  0.62515342  1
  Li  Li616  1  0.83343943  0.02791832  0.79182008  1
  Li  Li617  1  0.83343943  0.02791832  0.95848675  1
  Li  Li618  1  0.83343943  0.19458499  0.12515342  1
  Li  Li619  1  0.83343943  0.19458499  0.29182008  1
  Li  Li620  1  0.83343943  0.19458499  0.45848675  1
  Li  Li621  1  0.83343943  0.19458499  0.62515342  1
  Li  Li622  1  0.83343943  0.19458499  0.79182008  1
  Li  Li623  1  0.83343943  0.19458499  0.95848675  1
  Li  Li624  1  0.83343943  0.36125166  0.12515342  1
  Li  Li625  1  0.83343943  0.36125166  0.29182008  1
  Li  Li626  1  0.83343943  0.36125166  0.45848675  1
  Li  Li627  1  0.83343943  0.36125166  0.62515342  1
  Li  Li628  1  0.83343943  0.36125166  0.79182008  1
  Li  Li629  1  0.83343943  0.36125166  0.95848675  1
  Li  Li630  1  0.83343943  0.52791832  0.12515342  1
  Li  Li631  1  0.83343943  0.52791832  0.29182008  1
  Li  Li632  1  0.83343943  0.52791832  0.45848675  1
  Li  Li633  1  0.83343943  0.52791832  0.62515342  1
  Li  Li634  1  0.83343943  0.52791832  0.79182008  1
  Li  Li635  1  0.83343943  0.52791832  0.95848675  1
  Li  Li636  1  0.83343943  0.69458499  0.12515342  1
  Li  Li637  1  0.83343943  0.69458499  0.29182008  1
  Li  Li638  1  0.83343943  0.69458499  0.45848675  1
  Li  Li639  1  0.83343943  0.69458499  0.62515342  1
  Li  Li640  1  0.83343943  0.69458499  0.79182008  1
  Li  Li641  1  0.83343943  0.69458499  0.95848675  1
  Li  Li642  1  0.83343943  0.86125166  0.12515342  1
  Li  Li643  1  0.83343943  0.86125166  0.29182008  1
  Li  Li644  1  0.83343943  0.86125166  0.45848675  1
  Li  Li645  1  0.83343943  0.86125166  0.62515342  1
  Li  Li646  1  0.83343943  0.86125166  0.79182008  1
  Li  Li647  1  0.83343943  0.86125166  0.95848675  1
  Li  Li648  1  0.08343942  0.13874834  0.12484658  1
  Li  Li649  1  0.08343942  0.13874834  0.29151325  1
  Li  Li650  1  0.08343942  0.13874834  0.45817992  1
  Li  Li651  1  0.08343942  0.13874834  0.62484658  1
  Li  Li652  1  0.08343942  0.13874834  0.79151325  1
  Li  Li653  1  0.08343942  0.13874834  0.95817992  1
  Li  Li654  1  0.08343942  0.30541501  0.12484658  1
  Li  Li655  1  0.08343942  0.30541501  0.29151325  1
  Li  Li656  1  0.08343942  0.30541501  0.45817992  1
  Li  Li657  1  0.08343942  0.30541501  0.62484658  1
  Li  Li658  1  0.08343942  0.30541501  0.79151325  1
  Li  Li659  1  0.08343942  0.30541501  0.95817992  1
  Li  Li660  1  0.08343942  0.47208168  0.12484658  1
  Li  Li661  1  0.08343942  0.47208168  0.29151325  1
  Li  Li662  1  0.08343942  0.47208168  0.45817992  1
  Li  Li663  1  0.08343942  0.47208168  0.62484658  1
  Li  Li664  1  0.08343942  0.47208168  0.79151325  1
  Li  Li665  1  0.08343942  0.47208168  0.95817992  1
  Li  Li666  1  0.08343942  0.63874834  0.12484658  1
  Li  Li667  1  0.08343942  0.63874834  0.29151325  1
  Li  Li668  1  0.08343942  0.63874834  0.45817992  1
  Li  Li669  1  0.08343942  0.63874834  0.62484658  1
  Li  Li670  1  0.08343942  0.63874834  0.79151325  1
  Li  Li671  1  0.08343942  0.63874834  0.95817992  1
  Li  Li672  1  0.08343942  0.80541501  0.12484658  1
  Li  Li673  1  0.08343942  0.80541501  0.29151325  1
  Li  Li674  1  0.08343942  0.80541501  0.45817992  1
  Li  Li675  1  0.08343942  0.80541501  0.62484658  1
  Li  Li676  1  0.08343942  0.80541501  0.79151325  1
  Li  Li677  1  0.08343942  0.80541501  0.95817992  1
  Li  Li678  1  0.08343942  0.97208168  0.12484658  1
  Li  Li679  1  0.08343942  0.97208168  0.29151325  1
  Li  Li680  1  0.08343942  0.97208168  0.45817992  1
  Li  Li681  1  0.08343942  0.97208168  0.62484658  1
  Li  Li682  1  0.08343942  0.97208168  0.79151325  1
  Li  Li683  1  0.08343942  0.97208168  0.95817992  1
  Li  Li684  1  0.25010609  0.13874834  0.12484658  1
  Li  Li685  1  0.25010609  0.13874834  0.29151325  1
  Li  Li686  1  0.25010609  0.13874834  0.45817992  1
  Li  Li687  1  0.25010609  0.13874834  0.62484658  1
  Li  Li688  1  0.25010609  0.13874834  0.79151325  1
  Li  Li689  1  0.25010609  0.13874834  0.95817992  1
  Li  Li690  1  0.25010609  0.30541501  0.12484658  1
  Li  Li691  1  0.25010609  0.30541501  0.29151325  1
  Li  Li692  1  0.25010609  0.30541501  0.45817992  1
  Li  Li693  1  0.25010609  0.30541501  0.62484658  1
  Li  Li694  1  0.25010609  0.30541501  0.79151325  1
  Li  Li695  1  0.25010609  0.30541501  0.95817992  1
  Li  Li696  1  0.25010609  0.47208168  0.12484658  1
  Li  Li697  1  0.25010609  0.47208168  0.29151325  1
  Li  Li698  1  0.25010609  0.47208168  0.45817992  1
  Li  Li699  1  0.25010609  0.47208168  0.62484658  1
  Li  Li700  1  0.25010609  0.47208168  0.79151325  1
  Li  Li701  1  0.25010609  0.47208168  0.95817992  1
  Li  Li702  1  0.25010609  0.63874834  0.12484658  1
  Li  Li703  1  0.25010609  0.63874834  0.29151325  1
  Li  Li704  1  0.25010609  0.63874834  0.45817992  1
  Li  Li705  1  0.25010609  0.63874834  0.62484658  1
  Li  Li706  1  0.25010609  0.63874834  0.79151325  1
  Li  Li707  1  0.25010609  0.63874834  0.95817992  1
  Li  Li708  1  0.25010609  0.80541501  0.12484658  1
  Li  Li709  1  0.25010609  0.80541501  0.29151325  1
  Li  Li710  1  0.25010609  0.80541501  0.45817992  1
  Li  Li711  1  0.25010609  0.80541501  0.62484658  1
  Li  Li712  1  0.25010609  0.80541501  0.79151325  1
  Li  Li713  1  0.25010609  0.80541501  0.95817992  1
  Li  Li714  1  0.25010609  0.97208168  0.12484658  1
  Li  Li715  1  0.25010609  0.97208168  0.29151325  1
  Li  Li716  1  0.25010609  0.97208168  0.45817992  1
  Li  Li717  1  0.25010609  0.97208168  0.62484658  1
  Li  Li718  1  0.25010609  0.97208168  0.79151325  1
  Li  Li719  1  0.25010609  0.97208168  0.95817992  1
  Li  Li720  1  0.41677276  0.13874834  0.12484658  1
  Li  Li721  1  0.41677276  0.13874834  0.29151325  1
  Li  Li722  1  0.41677276  0.13874834  0.45817992  1
  Li  Li723  1  0.41677276  0.13874834  0.62484658  1
  Li  Li724  1  0.41677276  0.13874834  0.79151325  1
  Li  Li725  1  0.41677276  0.13874834  0.95817992  1
  Li  Li726  1  0.41677276  0.30541501  0.12484658  1
  Li  Li727  1  0.41677276  0.30541501  0.29151325  1
  Li  Li728  1  0.41677276  0.30541501  0.45817992  1
  Li  Li729  1  0.41677276  0.30541501  0.62484658  1
  Li  Li730  1  0.41677276  0.30541501  0.79151325  1
  Li  Li731  1  0.41677276  0.30541501  0.95817992  1
  Li  Li732  1  0.41677276  0.47208168  0.12484658  1
  Li  Li733  1  0.41677276  0.47208168  0.29151325  1
  Li  Li734  1  0.41677276  0.47208168  0.45817992  1
  Li  Li735  1  0.41677276  0.47208168  0.62484658  1
  Li  Li736  1  0.41677276  0.47208168  0.79151325  1
  Li  Li737  1  0.41677276  0.47208168  0.95817992  1
  Li  Li738  1  0.41677276  0.63874834  0.12484658  1
  Li  Li739  1  0.41677276  0.63874834  0.29151325  1
  Li  Li740  1  0.41677276  0.63874834  0.45817992  1
  Li  Li741  1  0.41677276  0.63874834  0.62484658  1
  Li  Li742  1  0.41677276  0.63874834  0.79151325  1
  Li  Li743  1  0.41677276  0.63874834  0.95817992  1
  Li  Li744  1  0.41677276  0.80541501  0.12484658  1
  Li  Li745  1  0.41677276  0.80541501  0.29151325  1
  Li  Li746  1  0.41677276  0.80541501  0.45817992  1
  Li  Li747  1  0.41677276  0.80541501  0.62484658  1
  Li  Li748  1  0.41677276  0.80541501  0.79151325  1
  Li  Li749  1  0.41677276  0.80541501  0.95817992  1
  Li  Li750  1  0.41677276  0.97208168  0.12484658  1
  Li  Li751  1  0.41677276  0.97208168  0.29151325  1
  Li  Li752  1  0.41677276  0.97208168  0.45817992  1
  Li  Li753  1  0.41677276  0.97208168  0.62484658  1
  Li  Li754  1  0.41677276  0.97208168  0.79151325  1
  Li  Li755  1  0.41677276  0.97208168  0.95817992  1
  Li  Li756  1  0.58343943  0.13874834  0.12484658  1
  Li  Li757  1  0.58343943  0.13874834  0.29151325  1
  Li  Li758  1  0.58343943  0.13874834  0.45817992  1
  Li  Li759  1  0.58343943  0.13874834  0.62484658  1
  Li  Li760  1  0.58343943  0.13874834  0.79151325  1
  Li  Li761  1  0.58343943  0.13874834  0.95817992  1
  Li  Li762  1  0.58343943  0.30541501  0.12484658  1
  Li  Li763  1  0.58343943  0.30541501  0.29151325  1
  Li  Li764  1  0.58343943  0.30541501  0.45817992  1
  Li  Li765  1  0.58343943  0.30541501  0.62484658  1
  Li  Li766  1  0.58343943  0.30541501  0.79151325  1
  Li  Li767  1  0.58343943  0.30541501  0.95817992  1
  Li  Li768  1  0.58343943  0.47208168  0.12484658  1
  Li  Li769  1  0.58343943  0.47208168  0.29151325  1
  Li  Li770  1  0.58343943  0.47208168  0.45817992  1
  Li  Li771  1  0.58343943  0.47208168  0.62484658  1
  Li  Li772  1  0.58343943  0.47208168  0.79151325  1
  Li  Li773  1  0.58343943  0.47208168  0.95817992  1
  Li  Li774  1  0.58343943  0.63874834  0.12484658  1
  Li  Li775  1  0.58343943  0.63874834  0.29151325  1
  Li  Li776  1  0.58343943  0.63874834  0.45817992  1
  Li  Li777  1  0.58343943  0.63874834  0.62484658  1
  Li  Li778  1  0.58343943  0.63874834  0.79151325  1
  Li  Li779  1  0.58343943  0.63874834  0.95817992  1
  Li  Li780  1  0.58343943  0.80541501  0.12484658  1
  Li  Li781  1  0.58343943  0.80541501  0.29151325  1
  Li  Li782  1  0.58343943  0.80541501  0.45817992  1
  Li  Li783  1  0.58343943  0.80541501  0.62484658  1
  Li  Li784  1  0.58343943  0.80541501  0.79151325  1
  Li  Li785  1  0.58343943  0.80541501  0.95817992  1
  Li  Li786  1  0.58343943  0.97208168  0.12484658  1
  Li  Li787  1  0.58343943  0.97208168  0.29151325  1
  Li  Li788  1  0.58343943  0.97208168  0.45817992  1
  Li  Li789  1  0.58343943  0.97208168  0.62484658  1
  Li  Li790  1  0.58343943  0.97208168  0.79151325  1
  Li  Li791  1  0.58343943  0.97208168  0.95817992  1
  Li  Li792  1  0.75010609  0.13874834  0.12484658  1
  Li  Li793  1  0.75010609  0.13874834  0.29151325  1
  Li  Li794  1  0.75010609  0.13874834  0.45817992  1
  Li  Li795  1  0.75010609  0.13874834  0.62484658  1
  Li  Li796  1  0.75010609  0.13874834  0.79151325  1
  Li  Li797  1  0.75010609  0.13874834  0.95817992  1
  Li  Li798  1  0.75010609  0.30541501  0.12484658  1
  Li  Li799  1  0.75010609  0.30541501  0.29151325  1
  Li  Li800  1  0.75010609  0.30541501  0.45817992  1
  Li  Li801  1  0.75010609  0.30541501  0.62484658  1
  Li  Li802  1  0.75010609  0.30541501  0.79151325  1
  Li  Li803  1  0.75010609  0.30541501  0.95817992  1
  Li  Li804  1  0.75010609  0.47208168  0.12484658  1
  Li  Li805  1  0.75010609  0.47208168  0.29151325  1
  Li  Li806  1  0.75010609  0.47208168  0.45817992  1
  Li  Li807  1  0.75010609  0.47208168  0.62484658  1
  Li  Li808  1  0.75010609  0.47208168  0.79151325  1
  Li  Li809  1  0.75010609  0.47208168  0.95817992  1
  Li  Li810  1  0.75010609  0.63874834  0.12484658  1
  Li  Li811  1  0.75010609  0.63874834  0.29151325  1
  Li  Li812  1  0.75010609  0.63874834  0.45817992  1
  Li  Li813  1  0.75010609  0.63874834  0.62484658  1
  Li  Li814  1  0.75010609  0.63874834  0.79151325  1
  Li  Li815  1  0.75010609  0.63874834  0.95817992  1
  Li  Li816  1  0.75010609  0.80541501  0.12484658  1
  Li  Li817  1  0.75010609  0.80541501  0.29151325  1
  Li  Li818  1  0.75010609  0.80541501  0.45817992  1
  Li  Li819  1  0.75010609  0.80541501  0.62484658  1
  Li  Li820  1  0.75010609  0.80541501  0.79151325  1
  Li  Li821  1  0.75010609  0.80541501  0.95817992  1
  Li  Li822  1  0.75010609  0.97208168  0.12484658  1
  Li  Li823  1  0.75010609  0.97208168  0.29151325  1
  Li  Li824  1  0.75010609  0.97208168  0.45817992  1
  Li  Li825  1  0.75010609  0.97208168  0.62484658  1
  Li  Li826  1  0.75010609  0.97208168  0.79151325  1
  Li  Li827  1  0.75010609  0.97208168  0.95817992  1
  Li  Li828  1  0.91677276  0.13874834  0.12484658  1
  Li  Li829  1  0.91677276  0.13874834  0.29151325  1
  Li  Li830  1  0.91677276  0.13874834  0.45817992  1
  Li  Li831  1  0.91677276  0.13874834  0.62484658  1
  Li  Li832  1  0.91677276  0.13874834  0.79151325  1
  Li  Li833  1  0.91677276  0.13874834  0.95817992  1
  Li  Li834  1  0.91677276  0.30541501  0.12484658  1
  Li  Li835  1  0.91677276  0.30541501  0.29151325  1
  Li  Li836  1  0.91677276  0.30541501  0.45817992  1
  Li  Li837  1  0.91677276  0.30541501  0.62484658  1
  Li  Li838  1  0.91677276  0.30541501  0.79151325  1
  Li  Li839  1  0.91677276  0.30541501  0.95817992  1
  Li  Li840  1  0.91677276  0.47208168  0.12484658  1
  Li  Li841  1  0.91677276  0.47208168  0.29151325  1
  Li  Li842  1  0.91677276  0.47208168  0.45817992  1
  Li  Li843  1  0.91677276  0.47208168  0.62484658  1
  Li  Li844  1  0.91677276  0.47208168  0.79151325  1
  Li  Li845  1  0.91677276  0.47208168  0.95817992  1
  Li  Li846  1  0.91677276  0.63874834  0.12484658  1
  Li  Li847  1  0.91677276  0.63874834  0.29151325  1
  Li  Li848  1  0.91677276  0.63874834  0.45817992  1
  Li  Li849  1  0.91677276  0.63874834  0.62484658  1
  Li  Li850  1  0.91677276  0.63874834  0.79151325  1
  Li  Li851  1  0.91677276  0.63874834  0.95817992  1
  Li  Li852  1  0.91677276  0.80541501  0.12484658  1
  Li  Li853  1  0.91677276  0.80541501  0.29151325  1
  Li  Li854  1  0.91677276  0.80541501  0.45817992  1
  Li  Li855  1  0.91677276  0.80541501  0.62484658  1
  Li  Li856  1  0.91677276  0.80541501  0.79151325  1
  Li  Li857  1  0.91677276  0.80541501  0.95817992  1
  Li  Li858  1  0.91677276  0.97208168  0.12484658  1
  Li  Li859  1  0.91677276  0.97208168  0.29151325  1
  Li  Li860  1  0.91677276  0.97208168  0.45817992  1
  Li  Li861  1  0.91677276  0.97208168  0.62484658  1
  Li  Li862  1  0.91677276  0.97208168  0.79151325  1
  Li  Li863  1  0.91677276  0.97208168  0.95817992  1
  Mg  Mg864  1  0.08334402  0.05562747  0.00000000  1
  Mg  Mg865  1  0.08334402  0.05562747  0.16666667  1
  Mg  Mg866  1  0.08334402  0.05562747  0.33333333  1
  Mg  Mg867  1  0.08334402  0.05562747  0.50000000  1
  Mg  Mg868  1  0.08334402  0.05562747  0.66666667  1
  Mg  Mg869  1  0.08334402  0.05562747  0.83333333  1
  Mg  Mg870  1  0.08334402  0.22229413  0.00000000  1
  Mg  Mg871  1  0.08334402  0.22229413  0.16666667  1
  Mg  Mg872  1  0.08334402  0.22229413  0.33333333  1
  Mg  Mg873  1  0.08334402  0.22229413  0.50000000  1
  Mg  Mg874  1  0.08334402  0.22229413  0.66666667  1
  Mg  Mg875  1  0.08334402  0.22229413  0.83333333  1
  Mg  Mg876  1  0.08334402  0.38896080  0.00000000  1
  Mg  Mg877  1  0.08334402  0.38896080  0.16666667  1
  Mg  Mg878  1  0.08334402  0.38896080  0.33333333  1
  Mg  Mg879  1  0.08334402  0.38896080  0.50000000  1
  Mg  Mg880  1  0.08334402  0.38896080  0.66666667  1
  Mg  Mg881  1  0.08334402  0.38896080  0.83333333  1
  Mg  Mg882  1  0.08334402  0.55562747  0.00000000  1
  Mg  Mg883  1  0.08334402  0.55562747  0.16666667  1
  Mg  Mg884  1  0.08334402  0.55562747  0.33333333  1
  Mg  Mg885  1  0.08334402  0.55562747  0.50000000  1
  Mg  Mg886  1  0.08334402  0.55562747  0.66666667  1
  Mg  Mg887  1  0.08334402  0.55562747  0.83333333  1
  Mg  Mg888  1  0.08334402  0.72229413  0.00000000  1
  Mg  Mg889  1  0.08334402  0.72229413  0.16666667  1
  Mg  Mg890  1  0.08334402  0.72229413  0.33333333  1
  Mg  Mg891  1  0.08334402  0.72229413  0.50000000  1
  Mg  Mg892  1  0.08334402  0.72229413  0.66666667  1
  Mg  Mg893  1  0.08334402  0.72229413  0.83333333  1
  Mg  Mg894  1  0.08334402  0.88896080  0.00000000  1
  Mg  Mg895  1  0.08334402  0.88896080  0.16666667  1
  Mg  Mg896  1  0.08334402  0.88896080  0.33333333  1
  Mg  Mg897  1  0.08334402  0.88896080  0.50000000  1
  Mg  Mg898  1  0.08334402  0.88896080  0.66666667  1
  Mg  Mg899  1  0.08334402  0.88896080  0.83333333  1
  Mg  Mg900  1  0.25001069  0.05562747  0.00000000  1
  Mg  Mg901  1  0.25001069  0.05562747  0.16666667  1
  Mg  Mg902  1  0.25001069  0.05562747  0.33333333  1
  Mg  Mg903  1  0.25001069  0.05562747  0.50000000  1
  Mg  Mg904  1  0.25001069  0.05562747  0.66666667  1
  Mg  Mg905  1  0.25001069  0.05562747  0.83333333  1
  Mg  Mg906  1  0.25001069  0.22229413  0.00000000  1
  Mg  Mg907  1  0.25001069  0.22229413  0.16666667  1
  Mg  Mg908  1  0.25001069  0.22229413  0.33333333  1
  Mg  Mg909  1  0.25001069  0.22229413  0.50000000  1
  Mg  Mg910  1  0.25001069  0.22229413  0.66666667  1
  Mg  Mg911  1  0.25001069  0.22229413  0.83333333  1
  Mg  Mg912  1  0.25001069  0.38896080  0.00000000  1
  Mg  Mg913  1  0.25001069  0.38896080  0.16666667  1
  Mg  Mg914  1  0.25001069  0.38896080  0.33333333  1
  Mg  Mg915  1  0.25001069  0.38896080  0.50000000  1
  Mg  Mg916  1  0.25001069  0.38896080  0.66666667  1
  Mg  Mg917  1  0.25001069  0.38896080  0.83333333  1
  Mg  Mg918  1  0.25001069  0.55562747  0.00000000  1
  Mg  Mg919  1  0.25001069  0.55562747  0.16666667  1
  Mg  Mg920  1  0.25001069  0.55562747  0.33333333  1
  Mg  Mg921  1  0.25001069  0.55562747  0.50000000  1
  Mg  Mg922  1  0.25001069  0.55562747  0.66666667  1
  Mg  Mg923  1  0.25001069  0.55562747  0.83333333  1
  Mg  Mg924  1  0.25001069  0.72229413  0.00000000  1
  Mg  Mg925  1  0.25001069  0.72229413  0.16666667  1
  Mg  Mg926  1  0.25001069  0.72229413  0.33333333  1
  Mg  Mg927  1  0.25001069  0.72229413  0.50000000  1
  Mg  Mg928  1  0.25001069  0.72229413  0.66666667  1
  Mg  Mg929  1  0.25001069  0.72229413  0.83333333  1
  Mg  Mg930  1  0.25001069  0.88896080  0.00000000  1
  Mg  Mg931  1  0.25001069  0.88896080  0.16666667  1
  Mg  Mg932  1  0.25001069  0.88896080  0.33333333  1
  Mg  Mg933  1  0.25001069  0.88896080  0.50000000  1
  Mg  Mg934  1  0.25001069  0.88896080  0.66666667  1
  Mg  Mg935  1  0.25001069  0.88896080  0.83333333  1
  Mg  Mg936  1  0.41667736  0.05562747  0.00000000  1
  Mg  Mg937  1  0.41667736  0.05562747  0.16666667  1
  Mg  Mg938  1  0.41667736  0.05562747  0.33333333  1
  Mg  Mg939  1  0.41667736  0.05562747  0.50000000  1
  Mg  Mg940  1  0.41667736  0.05562747  0.66666667  1
  Mg  Mg941  1  0.41667736  0.05562747  0.83333333  1
  Mg  Mg942  1  0.41667736  0.22229413  0.00000000  1
  Mg  Mg943  1  0.41667736  0.22229413  0.16666667  1
  Mg  Mg944  1  0.41667736  0.22229413  0.33333333  1
  Mg  Mg945  1  0.41667736  0.22229413  0.50000000  1
  Mg  Mg946  1  0.41667736  0.22229413  0.66666667  1
  Mg  Mg947  1  0.41667736  0.22229413  0.83333333  1
  Mg  Mg948  1  0.41667736  0.38896080  0.00000000  1
  Mg  Mg949  1  0.41667736  0.38896080  0.16666667  1
  Mg  Mg950  1  0.41667736  0.38896080  0.33333333  1
  Mg  Mg951  1  0.41667736  0.38896080  0.50000000  1
  Mg  Mg952  1  0.41667736  0.38896080  0.66666667  1
  Mg  Mg953  1  0.41667736  0.38896080  0.83333333  1
  Mg  Mg954  1  0.41667736  0.55562747  0.00000000  1
  Mg  Mg955  1  0.41667736  0.55562747  0.16666667  1
  Mg  Mg956  1  0.41667736  0.55562747  0.33333333  1
  Mg  Mg957  1  0.41667736  0.55562747  0.50000000  1
  Mg  Mg958  1  0.41667736  0.55562747  0.66666667  1
  Mg  Mg959  1  0.41667736  0.55562747  0.83333333  1
  Mg  Mg960  1  0.41667736  0.72229413  0.00000000  1
  Mg  Mg961  1  0.41667736  0.72229413  0.16666667  1
  Mg  Mg962  1  0.41667736  0.72229413  0.33333333  1
  Mg  Mg963  1  0.41667736  0.72229413  0.50000000  1
  Mg  Mg964  1  0.41667736  0.72229413  0.66666667  1
  Mg  Mg965  1  0.41667736  0.72229413  0.83333333  1
  Mg  Mg966  1  0.41667736  0.88896080  0.00000000  1
  Mg  Mg967  1  0.41667736  0.88896080  0.16666667  1
  Mg  Mg968  1  0.41667736  0.88896080  0.33333333  1
  Mg  Mg969  1  0.41667736  0.88896080  0.50000000  1
  Mg  Mg970  1  0.41667736  0.88896080  0.66666667  1
  Mg  Mg971  1  0.41667736  0.88896080  0.83333333  1
  Mg  Mg972  1  0.58334402  0.05562747  0.00000000  1
  Mg  Mg973  1  0.58334402  0.05562747  0.16666667  1
  Mg  Mg974  1  0.58334402  0.05562747  0.33333333  1
  Mg  Mg975  1  0.58334402  0.05562747  0.50000000  1
  Mg  Mg976  1  0.58334402  0.05562747  0.66666667  1
  Mg  Mg977  1  0.58334402  0.05562747  0.83333333  1
  Mg  Mg978  1  0.58334402  0.22229413  0.00000000  1
  Mg  Mg979  1  0.58334402  0.22229413  0.16666667  1
  Mg  Mg980  1  0.58334402  0.22229413  0.33333333  1
  Mg  Mg981  1  0.58334402  0.22229413  0.50000000  1
  Mg  Mg982  1  0.58334402  0.22229413  0.66666667  1
  Mg  Mg983  1  0.58334402  0.22229413  0.83333333  1
  Mg  Mg984  1  0.58334402  0.38896080  0.00000000  1
  Mg  Mg985  1  0.58334402  0.38896080  0.16666667  1
  Mg  Mg986  1  0.58334402  0.38896080  0.33333333  1
  Mg  Mg987  1  0.58334402  0.38896080  0.50000000  1
  Mg  Mg988  1  0.58334402  0.38896080  0.66666667  1
  Mg  Mg989  1  0.58334402  0.38896080  0.83333333  1
  Mg  Mg990  1  0.58334402  0.55562747  0.00000000  1
  Mg  Mg991  1  0.58334402  0.55562747  0.16666667  1
  Mg  Mg992  1  0.58334402  0.55562747  0.33333333  1
  Mg  Mg993  1  0.58334402  0.55562747  0.50000000  1
  Mg  Mg994  1  0.58334402  0.55562747  0.66666667  1
  Mg  Mg995  1  0.58334402  0.55562747  0.83333333  1
  Mg  Mg996  1  0.58334402  0.72229413  0.00000000  1
  Mg  Mg997  1  0.58334402  0.72229413  0.16666667  1
  Mg  Mg998  1  0.58334402  0.72229413  0.33333333  1
  Mg  Mg999  1  0.58334402  0.72229413  0.50000000  1
  Mg  Mg1000  1  0.58334402  0.72229413  0.66666667  1
  Mg  Mg1001  1  0.58334402  0.72229413  0.83333333  1
  Mg  Mg1002  1  0.58334402  0.88896080  0.00000000  1
  Mg  Mg1003  1  0.58334402  0.88896080  0.16666667  1
  Mg  Mg1004  1  0.58334402  0.88896080  0.33333333  1
  Mg  Mg1005  1  0.58334402  0.88896080  0.50000000  1
  Mg  Mg1006  1  0.58334402  0.88896080  0.66666667  1
  Mg  Mg1007  1  0.58334402  0.88896080  0.83333333  1
  Mg  Mg1008  1  0.75001069  0.05562747  0.00000000  1
  Mg  Mg1009  1  0.75001069  0.05562747  0.16666667  1
  Mg  Mg1010  1  0.75001069  0.05562747  0.33333333  1
  Mg  Mg1011  1  0.75001069  0.05562747  0.50000000  1
  Mg  Mg1012  1  0.75001069  0.05562747  0.66666667  1
  Mg  Mg1013  1  0.75001069  0.05562747  0.83333333  1
  Mg  Mg1014  1  0.75001069  0.22229413  0.00000000  1
  Mg  Mg1015  1  0.75001069  0.22229413  0.16666667  1
  Mg  Mg1016  1  0.75001069  0.22229413  0.33333333  1
  Mg  Mg1017  1  0.75001069  0.22229413  0.50000000  1
  Mg  Mg1018  1  0.75001069  0.22229413  0.66666667  1
  Mg  Mg1019  1  0.75001069  0.22229413  0.83333333  1
  Mg  Mg1020  1  0.75001069  0.38896080  0.00000000  1
  Mg  Mg1021  1  0.75001069  0.38896080  0.16666667  1
  Mg  Mg1022  1  0.75001069  0.38896080  0.33333333  1
  Mg  Mg1023  1  0.75001069  0.38896080  0.50000000  1
  Mg  Mg1024  1  0.75001069  0.38896080  0.66666667  1
  Mg  Mg1025  1  0.75001069  0.38896080  0.83333333  1
  Mg  Mg1026  1  0.75001069  0.55562747  0.00000000  1
  Mg  Mg1027  1  0.75001069  0.55562747  0.16666667  1
  Mg  Mg1028  1  0.75001069  0.55562747  0.33333333  1
  Mg  Mg1029  1  0.75001069  0.55562747  0.50000000  1
  Mg  Mg1030  1  0.75001069  0.55562747  0.66666667  1
  Mg  Mg1031  1  0.75001069  0.55562747  0.83333333  1
  Mg  Mg1032  1  0.75001069  0.72229413  0.00000000  1
  Mg  Mg1033  1  0.75001069  0.72229413  0.16666667  1
  Mg  Mg1034  1  0.75001069  0.72229413  0.33333333  1
  Mg  Mg1035  1  0.75001069  0.72229413  0.50000000  1
  Mg  Mg1036  1  0.75001069  0.72229413  0.66666667  1
  Mg  Mg1037  1  0.75001069  0.72229413  0.83333333  1
  Mg  Mg1038  1  0.75001069  0.88896080  0.00000000  1
  Mg  Mg1039  1  0.75001069  0.88896080  0.16666667  1
  Mg  Mg1040  1  0.75001069  0.88896080  0.33333333  1
  Mg  Mg1041  1  0.75001069  0.88896080  0.50000000  1
  Mg  Mg1042  1  0.75001069  0.88896080  0.66666667  1
  Mg  Mg1043  1  0.75001069  0.88896080  0.83333333  1
  Mg  Mg1044  1  0.91667736  0.05562747  0.00000000  1
  Mg  Mg1045  1  0.91667736  0.05562747  0.16666667  1
  Mg  Mg1046  1  0.91667736  0.05562747  0.33333333  1
  Mg  Mg1047  1  0.91667736  0.05562747  0.50000000  1
  Mg  Mg1048  1  0.91667736  0.05562747  0.66666667  1
  Mg  Mg1049  1  0.91667736  0.05562747  0.83333333  1
  Mg  Mg1050  1  0.91667736  0.22229413  0.00000000  1
  Mg  Mg1051  1  0.91667736  0.22229413  0.16666667  1
  Mg  Mg1052  1  0.91667736  0.22229413  0.33333333  1
  Mg  Mg1053  1  0.91667736  0.22229413  0.50000000  1
  Mg  Mg1054  1  0.91667736  0.22229413  0.66666667  1
  Mg  Mg1055  1  0.91667736  0.22229413  0.83333333  1
  Mg  Mg1056  1  0.91667736  0.38896080  0.00000000  1
  Mg  Mg1057  1  0.91667736  0.38896080  0.16666667  1
  Mg  Mg1058  1  0.91667736  0.38896080  0.33333333  1
  Mg  Mg1059  1  0.91667736  0.38896080  0.50000000  1
  Mg  Mg1060  1  0.91667736  0.38896080  0.66666667  1
  Mg  Mg1061  1  0.91667736  0.38896080  0.83333333  1
  Mg  Mg1062  1  0.91667736  0.55562747  0.00000000  1
  Mg  Mg1063  1  0.91667736  0.55562747  0.16666667  1
  Mg  Mg1064  1  0.91667736  0.55562747  0.33333333  1
  Mg  Mg1065  1  0.91667736  0.55562747  0.50000000  1
  Mg  Mg1066  1  0.91667736  0.55562747  0.66666667  1
  Mg  Mg1067  1  0.91667736  0.55562747  0.83333333  1
  Mg  Mg1068  1  0.91667736  0.72229413  0.00000000  1
  Mg  Mg1069  1  0.91667736  0.72229413  0.16666667  1
  Mg  Mg1070  1  0.91667736  0.72229413  0.33333333  1
  Mg  Mg1071  1  0.91667736  0.72229413  0.50000000  1
  Mg  Mg1072  1  0.91667736  0.72229413  0.66666667  1
  Mg  Mg1073  1  0.91667736  0.72229413  0.83333333  1
  Mg  Mg1074  1  0.91667736  0.88896080  0.00000000  1
  Mg  Mg1075  1  0.91667736  0.88896080  0.16666667  1
  Mg  Mg1076  1  0.91667736  0.88896080  0.33333333  1
  Mg  Mg1077  1  0.91667736  0.88896080  0.50000000  1
  Mg  Mg1078  1  0.91667736  0.88896080  0.66666667  1
  Mg  Mg1079  1  0.91667736  0.88896080  0.83333333  1
  Mg  Mg1080  1  0.00001069  0.11103920  0.08333333  1
  Mg  Mg1081  1  0.00001069  0.11103920  0.25000000  1
  Mg  Mg1082  1  0.00001069  0.11103920  0.41666667  1
  Mg  Mg1083  1  0.00001069  0.11103920  0.58333333  1
  Mg  Mg1084  1  0.00001069  0.11103920  0.75000000  1
  Mg  Mg1085  1  0.00001069  0.11103920  0.91666667  1
  Mg  Mg1086  1  0.00001069  0.27770587  0.08333333  1
  Mg  Mg1087  1  0.00001069  0.27770587  0.25000000  1
  Mg  Mg1088  1  0.00001069  0.27770587  0.41666667  1
  Mg  Mg1089  1  0.00001069  0.27770587  0.58333333  1
  Mg  Mg1090  1  0.00001069  0.27770587  0.75000000  1
  Mg  Mg1091  1  0.00001069  0.27770587  0.91666667  1
  Mg  Mg1092  1  0.00001069  0.44437254  0.08333333  1
  Mg  Mg1093  1  0.00001069  0.44437254  0.25000000  1
  Mg  Mg1094  1  0.00001069  0.44437254  0.41666667  1
  Mg  Mg1095  1  0.00001069  0.44437254  0.58333333  1
  Mg  Mg1096  1  0.00001069  0.44437254  0.75000000  1
  Mg  Mg1097  1  0.00001069  0.44437254  0.91666667  1
  Mg  Mg1098  1  0.00001069  0.61103920  0.08333333  1
  Mg  Mg1099  1  0.00001069  0.61103920  0.25000000  1
  Mg  Mg1100  1  0.00001069  0.61103920  0.41666667  1
  Mg  Mg1101  1  0.00001069  0.61103920  0.58333333  1
  Mg  Mg1102  1  0.00001069  0.61103920  0.75000000  1
  Mg  Mg1103  1  0.00001069  0.61103920  0.91666667  1
  Mg  Mg1104  1  0.00001069  0.77770587  0.08333333  1
  Mg  Mg1105  1  0.00001069  0.77770587  0.25000000  1
  Mg  Mg1106  1  0.00001069  0.77770587  0.41666667  1
  Mg  Mg1107  1  0.00001069  0.77770587  0.58333333  1
  Mg  Mg1108  1  0.00001069  0.77770587  0.75000000  1
  Mg  Mg1109  1  0.00001069  0.77770587  0.91666667  1
  Mg  Mg1110  1  0.00001069  0.94437253  0.08333333  1
  Mg  Mg1111  1  0.00001069  0.94437253  0.25000000  1
  Mg  Mg1112  1  0.00001069  0.94437253  0.41666667  1
  Mg  Mg1113  1  0.00001069  0.94437253  0.58333333  1
  Mg  Mg1114  1  0.00001069  0.94437253  0.75000000  1
  Mg  Mg1115  1  0.00001069  0.94437253  0.91666667  1
  Mg  Mg1116  1  0.16667736  0.11103920  0.08333333  1
  Mg  Mg1117  1  0.16667736  0.11103920  0.25000000  1
  Mg  Mg1118  1  0.16667736  0.11103920  0.41666667  1
  Mg  Mg1119  1  0.16667736  0.11103920  0.58333333  1
  Mg  Mg1120  1  0.16667736  0.11103920  0.75000000  1
  Mg  Mg1121  1  0.16667736  0.11103920  0.91666667  1
  Mg  Mg1122  1  0.16667736  0.27770587  0.08333333  1
  Mg  Mg1123  1  0.16667736  0.27770587  0.25000000  1
  Mg  Mg1124  1  0.16667736  0.27770587  0.41666667  1
  Mg  Mg1125  1  0.16667736  0.27770587  0.58333333  1
  Mg  Mg1126  1  0.16667736  0.27770587  0.75000000  1
  Mg  Mg1127  1  0.16667736  0.27770587  0.91666667  1
  Mg  Mg1128  1  0.16667736  0.44437254  0.08333333  1
  Mg  Mg1129  1  0.16667736  0.44437254  0.25000000  1
  Mg  Mg1130  1  0.16667736  0.44437254  0.41666667  1
  Mg  Mg1131  1  0.16667736  0.44437254  0.58333333  1
  Mg  Mg1132  1  0.16667736  0.44437254  0.75000000  1
  Mg  Mg1133  1  0.16667736  0.44437254  0.91666667  1
  Mg  Mg1134  1  0.16667736  0.61103920  0.08333333  1
  Mg  Mg1135  1  0.16667736  0.61103920  0.25000000  1
  Mg  Mg1136  1  0.16667736  0.61103920  0.41666667  1
  Mg  Mg1137  1  0.16667736  0.61103920  0.58333333  1
  Mg  Mg1138  1  0.16667736  0.61103920  0.75000000  1
  Mg  Mg1139  1  0.16667736  0.61103920  0.91666667  1
  Mg  Mg1140  1  0.16667736  0.77770587  0.08333333  1
  Mg  Mg1141  1  0.16667736  0.77770587  0.25000000  1
  Mg  Mg1142  1  0.16667736  0.77770587  0.41666667  1
  Mg  Mg1143  1  0.16667736  0.77770587  0.58333333  1
  Mg  Mg1144  1  0.16667736  0.77770587  0.75000000  1
  Mg  Mg1145  1  0.16667736  0.77770587  0.91666667  1
  Mg  Mg1146  1  0.16667736  0.94437253  0.08333333  1
  Mg  Mg1147  1  0.16667736  0.94437253  0.25000000  1
  Mg  Mg1148  1  0.16667736  0.94437253  0.41666667  1
  Mg  Mg1149  1  0.16667736  0.94437253  0.58333333  1
  Mg  Mg1150  1  0.16667736  0.94437253  0.75000000  1
  Mg  Mg1151  1  0.16667736  0.94437253  0.91666667  1
  Mg  Mg1152  1  0.33334402  0.11103920  0.08333333  1
  Mg  Mg1153  1  0.33334402  0.11103920  0.25000000  1
  Mg  Mg1154  1  0.33334402  0.11103920  0.41666667  1
  Mg  Mg1155  1  0.33334402  0.11103920  0.58333333  1
  Mg  Mg1156  1  0.33334402  0.11103920  0.75000000  1
  Mg  Mg1157  1  0.33334402  0.11103920  0.91666667  1
  Mg  Mg1158  1  0.33334402  0.27770587  0.08333333  1
  Mg  Mg1159  1  0.33334402  0.27770587  0.25000000  1
  Mg  Mg1160  1  0.33334402  0.27770587  0.41666667  1
  Mg  Mg1161  1  0.33334402  0.27770587  0.58333333  1
  Mg  Mg1162  1  0.33334402  0.27770587  0.75000000  1
  Mg  Mg1163  1  0.33334402  0.27770587  0.91666667  1
  Mg  Mg1164  1  0.33334402  0.44437254  0.08333333  1
  Mg  Mg1165  1  0.33334402  0.44437254  0.25000000  1
  Mg  Mg1166  1  0.33334402  0.44437254  0.41666667  1
  Mg  Mg1167  1  0.33334402  0.44437254  0.58333333  1
  Mg  Mg1168  1  0.33334402  0.44437254  0.75000000  1
  Mg  Mg1169  1  0.33334402  0.44437254  0.91666667  1
  Mg  Mg1170  1  0.33334402  0.61103920  0.08333333  1
  Mg  Mg1171  1  0.33334402  0.61103920  0.25000000  1
  Mg  Mg1172  1  0.33334402  0.61103920  0.41666667  1
  Mg  Mg1173  1  0.33334402  0.61103920  0.58333333  1
  Mg  Mg1174  1  0.33334402  0.61103920  0.75000000  1
  Mg  Mg1175  1  0.33334402  0.61103920  0.91666667  1
  Mg  Mg1176  1  0.33334402  0.77770587  0.08333333  1
  Mg  Mg1177  1  0.33334402  0.77770587  0.25000000  1
  Mg  Mg1178  1  0.33334402  0.77770587  0.41666667  1
  Mg  Mg1179  1  0.33334402  0.77770587  0.58333333  1
  Mg  Mg1180  1  0.33334402  0.77770587  0.75000000  1
  Mg  Mg1181  1  0.33334402  0.77770587  0.91666667  1
  Mg  Mg1182  1  0.33334402  0.94437253  0.08333333  1
  Mg  Mg1183  1  0.33334402  0.94437253  0.25000000  1
  Mg  Mg1184  1  0.33334402  0.94437253  0.41666667  1
  Mg  Mg1185  1  0.33334402  0.94437253  0.58333333  1
  Mg  Mg1186  1  0.33334402  0.94437253  0.75000000  1
  Mg  Mg1187  1  0.33334402  0.94437253  0.91666667  1
  Mg  Mg1188  1  0.50001069  0.11103920  0.08333333  1
  Mg  Mg1189  1  0.50001069  0.11103920  0.25000000  1
  Mg  Mg1190  1  0.50001069  0.11103920  0.41666667  1
  Mg  Mg1191  1  0.50001069  0.11103920  0.58333333  1
  Mg  Mg1192  1  0.50001069  0.11103920  0.75000000  1
  Mg  Mg1193  1  0.50001069  0.11103920  0.91666667  1
  Mg  Mg1194  1  0.50001069  0.27770587  0.08333333  1
  Mg  Mg1195  1  0.50001069  0.27770587  0.25000000  1
  Mg  Mg1196  1  0.50001069  0.27770587  0.41666667  1
  Mg  Mg1197  1  0.50001069  0.27770587  0.58333333  1
  Mg  Mg1198  1  0.50001069  0.27770587  0.75000000  1
  Mg  Mg1199  1  0.50001069  0.27770587  0.91666667  1
  Mg  Mg1200  1  0.50001069  0.44437254  0.08333333  1
  Mg  Mg1201  1  0.50001069  0.44437254  0.25000000  1
  Mg  Mg1202  1  0.50001069  0.44437254  0.41666667  1
  Mg  Mg1203  1  0.50001069  0.44437254  0.58333333  1
  Mg  Mg1204  1  0.50001069  0.44437254  0.75000000  1
  Mg  Mg1205  1  0.50001069  0.44437254  0.91666667  1
  Mg  Mg1206  1  0.50001069  0.61103920  0.08333333  1
  Mg  Mg1207  1  0.50001069  0.61103920  0.25000000  1
  Mg  Mg1208  1  0.50001069  0.61103920  0.41666667  1
  Mg  Mg1209  1  0.50001069  0.61103920  0.58333333  1
  Mg  Mg1210  1  0.50001069  0.61103920  0.75000000  1
  Mg  Mg1211  1  0.50001069  0.61103920  0.91666667  1
  Mg  Mg1212  1  0.50001069  0.77770587  0.08333333  1
  Mg  Mg1213  1  0.50001069  0.77770587  0.25000000  1
  Mg  Mg1214  1  0.50001069  0.77770587  0.41666667  1
  Mg  Mg1215  1  0.50001069  0.77770587  0.58333333  1
  Mg  Mg1216  1  0.50001069  0.77770587  0.75000000  1
  Mg  Mg1217  1  0.50001069  0.77770587  0.91666667  1
  Mg  Mg1218  1  0.50001069  0.94437253  0.08333333  1
  Mg  Mg1219  1  0.50001069  0.94437253  0.25000000  1
  Mg  Mg1220  1  0.50001069  0.94437253  0.41666667  1
  Mg  Mg1221  1  0.50001069  0.94437253  0.58333333  1
  Mg  Mg1222  1  0.50001069  0.94437253  0.75000000  1
  Mg  Mg1223  1  0.50001069  0.94437253  0.91666667  1
  Mg  Mg1224  1  0.66667736  0.11103920  0.08333333  1
  Mg  Mg1225  1  0.66667736  0.11103920  0.25000000  1
  Mg  Mg1226  1  0.66667736  0.11103920  0.41666667  1
  Mg  Mg1227  1  0.66667736  0.11103920  0.58333333  1
  Mg  Mg1228  1  0.66667736  0.11103920  0.75000000  1
  Mg  Mg1229  1  0.66667736  0.11103920  0.91666667  1
  Mg  Mg1230  1  0.66667736  0.27770587  0.08333333  1
  Mg  Mg1231  1  0.66667736  0.27770587  0.25000000  1
  Mg  Mg1232  1  0.66667736  0.27770587  0.41666667  1
  Mg  Mg1233  1  0.66667736  0.27770587  0.58333333  1
  Mg  Mg1234  1  0.66667736  0.27770587  0.75000000  1
  Mg  Mg1235  1  0.66667736  0.27770587  0.91666667  1
  Mg  Mg1236  1  0.66667736  0.44437254  0.08333333  1
  Mg  Mg1237  1  0.66667736  0.44437254  0.25000000  1
  Mg  Mg1238  1  0.66667736  0.44437254  0.41666667  1
  Mg  Mg1239  1  0.66667736  0.44437254  0.58333333  1
  Mg  Mg1240  1  0.66667736  0.44437254  0.75000000  1
  Mg  Mg1241  1  0.66667736  0.44437254  0.91666667  1
  Mg  Mg1242  1  0.66667736  0.61103920  0.08333333  1
  Mg  Mg1243  1  0.66667736  0.61103920  0.25000000  1
  Mg  Mg1244  1  0.66667736  0.61103920  0.41666667  1
  Mg  Mg1245  1  0.66667736  0.61103920  0.58333333  1
  Mg  Mg1246  1  0.66667736  0.61103920  0.75000000  1
  Mg  Mg1247  1  0.66667736  0.61103920  0.91666667  1
  Mg  Mg1248  1  0.66667736  0.77770587  0.08333333  1
  Mg  Mg1249  1  0.66667736  0.77770587  0.25000000  1
  Mg  Mg1250  1  0.66667736  0.77770587  0.41666667  1
  Mg  Mg1251  1  0.66667736  0.77770587  0.58333333  1
  Mg  Mg1252  1  0.66667736  0.77770587  0.75000000  1
  Mg  Mg1253  1  0.66667736  0.77770587  0.91666667  1
  Mg  Mg1254  1  0.66667736  0.94437253  0.08333333  1
  Mg  Mg1255  1  0.66667736  0.94437253  0.25000000  1
  Mg  Mg1256  1  0.66667736  0.94437253  0.41666667  1
  Mg  Mg1257  1  0.66667736  0.94437253  0.58333333  1
  Mg  Mg1258  1  0.66667736  0.94437253  0.75000000  1
  Mg  Mg1259  1  0.66667736  0.94437253  0.91666667  1
  Mg  Mg1260  1  0.83334402  0.11103920  0.08333333  1
  Mg  Mg1261  1  0.83334402  0.11103920  0.25000000  1
  Mg  Mg1262  1  0.83334402  0.11103920  0.41666667  1
  Mg  Mg1263  1  0.83334402  0.11103920  0.58333333  1
  Mg  Mg1264  1  0.83334402  0.11103920  0.75000000  1
  Mg  Mg1265  1  0.83334402  0.11103920  0.91666667  1
  Mg  Mg1266  1  0.83334402  0.27770587  0.08333333  1
  Mg  Mg1267  1  0.83334402  0.27770587  0.25000000  1
  Mg  Mg1268  1  0.83334402  0.27770587  0.41666667  1
  Mg  Mg1269  1  0.83334402  0.27770587  0.58333333  1
  Mg  Mg1270  1  0.83334402  0.27770587  0.75000000  1
  Mg  Mg1271  1  0.83334402  0.27770587  0.91666667  1
  Mg  Mg1272  1  0.83334402  0.44437254  0.08333333  1
  Mg  Mg1273  1  0.83334402  0.44437254  0.25000000  1
  Mg  Mg1274  1  0.83334402  0.44437254  0.41666667  1
  Mg  Mg1275  1  0.83334402  0.44437254  0.58333333  1
  Mg  Mg1276  1  0.83334402  0.44437254  0.75000000  1
  Mg  Mg1277  1  0.83334402  0.44437254  0.91666667  1
  Mg  Mg1278  1  0.83334402  0.61103920  0.08333333  1
  Mg  Mg1279  1  0.83334402  0.61103920  0.25000000  1
  Mg  Mg1280  1  0.83334402  0.61103920  0.41666667  1
  Mg  Mg1281  1  0.83334402  0.61103920  0.58333333  1
  Mg  Mg1282  1  0.83334402  0.61103920  0.75000000  1
  Mg  Mg1283  1  0.83334402  0.61103920  0.91666667  1
  Mg  Mg1284  1  0.83334402  0.77770587  0.08333333  1
  Mg  Mg1285  1  0.83334402  0.77770587  0.25000000  1
  Mg  Mg1286  1  0.83334402  0.77770587  0.41666667  1
  Mg  Mg1287  1  0.83334402  0.77770587  0.58333333  1
  Mg  Mg1288  1  0.83334402  0.77770587  0.75000000  1
  Mg  Mg1289  1  0.83334402  0.77770587  0.91666667  1
  Mg  Mg1290  1  0.83334402  0.94437253  0.08333333  1
  Mg  Mg1291  1  0.83334402  0.94437253  0.25000000  1
  Mg  Mg1292  1  0.83334402  0.94437253  0.41666667  1
  Mg  Mg1293  1  0.83334402  0.94437253  0.58333333  1
  Mg  Mg1294  1  0.83334402  0.94437253  0.75000000  1
  Mg  Mg1295  1  0.83334402  0.94437253  0.91666667  1
  Ge  Ge1296  1  0.00113686  0.11255496  0.00000000  1
  Ge  Ge1297  1  0.00113686  0.11255496  0.16666667  1
  Ge  Ge1298  1  0.00113686  0.11255496  0.33333333  1
  Ge  Ge1299  1  0.00113686  0.11255496  0.50000000  1
  Ge  Ge1300  1  0.00113686  0.11255496  0.66666667  1
  Ge  Ge1301  1  0.00113686  0.11255496  0.83333333  1
  Ge  Ge1302  1  0.00113686  0.27922163  0.00000000  1
  Ge  Ge1303  1  0.00113686  0.27922163  0.16666667  1
  Ge  Ge1304  1  0.00113686  0.27922163  0.33333333  1
  Ge  Ge1305  1  0.00113686  0.27922163  0.50000000  1
  Ge  Ge1306  1  0.00113686  0.27922163  0.66666667  1
  Ge  Ge1307  1  0.00113686  0.27922163  0.83333333  1
  Ge  Ge1308  1  0.00113686  0.44588829  0.00000000  1
  Ge  Ge1309  1  0.00113686  0.44588829  0.16666667  1
  Ge  Ge1310  1  0.00113686  0.44588829  0.33333333  1
  Ge  Ge1311  1  0.00113686  0.44588829  0.50000000  1
  Ge  Ge1312  1  0.00113686  0.44588829  0.66666667  1
  Ge  Ge1313  1  0.00113686  0.44588829  0.83333333  1
  Ge  Ge1314  1  0.00113686  0.61255496  0.00000000  1
  Ge  Ge1315  1  0.00113686  0.61255496  0.16666667  1
  Ge  Ge1316  1  0.00113686  0.61255496  0.33333333  1
  Ge  Ge1317  1  0.00113686  0.61255496  0.50000000  1
  Ge  Ge1318  1  0.00113686  0.61255496  0.66666667  1
  Ge  Ge1319  1  0.00113686  0.61255496  0.83333333  1
  Ge  Ge1320  1  0.00113686  0.77922163  0.00000000  1
  Ge  Ge1321  1  0.00113686  0.77922163  0.16666667  1
  Ge  Ge1322  1  0.00113686  0.77922163  0.33333333  1
  Ge  Ge1323  1  0.00113686  0.77922163  0.50000000  1
  Ge  Ge1324  1  0.00113686  0.77922163  0.66666667  1
  Ge  Ge1325  1  0.00113686  0.77922163  0.83333333  1
  Ge  Ge1326  1  0.00113686  0.94588829  0.00000000  1
  Ge  Ge1327  1  0.00113686  0.94588829  0.16666667  1
  Ge  Ge1328  1  0.00113686  0.94588829  0.33333333  1
  Ge  Ge1329  1  0.00113686  0.94588829  0.50000000  1
  Ge  Ge1330  1  0.00113686  0.94588829  0.66666667  1
  Ge  Ge1331  1  0.00113686  0.94588829  0.83333333  1
  Ge  Ge1332  1  0.16780352  0.11255496  0.00000000  1
  Ge  Ge1333  1  0.16780352  0.11255496  0.16666667  1
  Ge  Ge1334  1  0.16780352  0.11255496  0.33333333  1
  Ge  Ge1335  1  0.16780352  0.11255496  0.50000000  1
  Ge  Ge1336  1  0.16780352  0.11255496  0.66666667  1
  Ge  Ge1337  1  0.16780352  0.11255496  0.83333333  1
  Ge  Ge1338  1  0.16780352  0.27922163  0.00000000  1
  Ge  Ge1339  1  0.16780352  0.27922163  0.16666667  1
  Ge  Ge1340  1  0.16780352  0.27922163  0.33333333  1
  Ge  Ge1341  1  0.16780352  0.27922163  0.50000000  1
  Ge  Ge1342  1  0.16780352  0.27922163  0.66666667  1
  Ge  Ge1343  1  0.16780352  0.27922163  0.83333333  1
  Ge  Ge1344  1  0.16780352  0.44588829  0.00000000  1
  Ge  Ge1345  1  0.16780352  0.44588829  0.16666667  1
  Ge  Ge1346  1  0.16780352  0.44588829  0.33333333  1
  Ge  Ge1347  1  0.16780352  0.44588829  0.50000000  1
  Ge  Ge1348  1  0.16780352  0.44588829  0.66666667  1
  Ge  Ge1349  1  0.16780352  0.44588829  0.83333333  1
  Ge  Ge1350  1  0.16780352  0.61255496  0.00000000  1
  Ge  Ge1351  1  0.16780352  0.61255496  0.16666667  1
  Ge  Ge1352  1  0.16780352  0.61255496  0.33333333  1
  Ge  Ge1353  1  0.16780352  0.61255496  0.50000000  1
  Ge  Ge1354  1  0.16780352  0.61255496  0.66666667  1
  Ge  Ge1355  1  0.16780352  0.61255496  0.83333333  1
  Ge  Ge1356  1  0.16780352  0.77922163  0.00000000  1
  Ge  Ge1357  1  0.16780352  0.77922163  0.16666667  1
  Ge  Ge1358  1  0.16780352  0.77922163  0.33333333  1
  Ge  Ge1359  1  0.16780352  0.77922163  0.50000000  1
  Ge  Ge1360  1  0.16780352  0.77922163  0.66666667  1
  Ge  Ge1361  1  0.16780352  0.77922163  0.83333333  1
  Ge  Ge1362  1  0.16780352  0.94588829  0.00000000  1
  Ge  Ge1363  1  0.16780352  0.94588829  0.16666667  1
  Ge  Ge1364  1  0.16780352  0.94588829  0.33333333  1
  Ge  Ge1365  1  0.16780352  0.94588829  0.50000000  1
  Ge  Ge1366  1  0.16780352  0.94588829  0.66666667  1
  Ge  Ge1367  1  0.16780352  0.94588829  0.83333333  1
  Ge  Ge1368  1  0.33447019  0.11255496  0.00000000  1
  Ge  Ge1369  1  0.33447019  0.11255496  0.16666667  1
  Ge  Ge1370  1  0.33447019  0.11255496  0.33333333  1
  Ge  Ge1371  1  0.33447019  0.11255496  0.50000000  1
  Ge  Ge1372  1  0.33447019  0.11255496  0.66666667  1
  Ge  Ge1373  1  0.33447019  0.11255496  0.83333333  1
  Ge  Ge1374  1  0.33447019  0.27922163  0.00000000  1
  Ge  Ge1375  1  0.33447019  0.27922163  0.16666667  1
  Ge  Ge1376  1  0.33447019  0.27922163  0.33333333  1
  Ge  Ge1377  1  0.33447019  0.27922163  0.50000000  1
  Ge  Ge1378  1  0.33447019  0.27922163  0.66666667  1
  Ge  Ge1379  1  0.33447019  0.27922163  0.83333333  1
  Ge  Ge1380  1  0.33447019  0.44588829  0.00000000  1
  Ge  Ge1381  1  0.33447019  0.44588829  0.16666667  1
  Ge  Ge1382  1  0.33447019  0.44588829  0.33333333  1
  Ge  Ge1383  1  0.33447019  0.44588829  0.50000000  1
  Ge  Ge1384  1  0.33447019  0.44588829  0.66666667  1
  Ge  Ge1385  1  0.33447019  0.44588829  0.83333333  1
  Ge  Ge1386  1  0.33447019  0.61255496  0.00000000  1
  Ge  Ge1387  1  0.33447019  0.61255496  0.16666667  1
  Ge  Ge1388  1  0.33447019  0.61255496  0.33333333  1
  Ge  Ge1389  1  0.33447019  0.61255496  0.50000000  1
  Ge  Ge1390  1  0.33447019  0.61255496  0.66666667  1
  Ge  Ge1391  1  0.33447019  0.61255496  0.83333333  1
  Ge  Ge1392  1  0.33447019  0.77922163  0.00000000  1
  Ge  Ge1393  1  0.33447019  0.77922163  0.16666667  1
  Ge  Ge1394  1  0.33447019  0.77922163  0.33333333  1
  Ge  Ge1395  1  0.33447019  0.77922163  0.50000000  1
  Ge  Ge1396  1  0.33447019  0.77922163  0.66666667  1
  Ge  Ge1397  1  0.33447019  0.77922163  0.83333333  1
  Ge  Ge1398  1  0.33447019  0.94588829  0.00000000  1
  Ge  Ge1399  1  0.33447019  0.94588829  0.16666667  1
  Ge  Ge1400  1  0.33447019  0.94588829  0.33333333  1
  Ge  Ge1401  1  0.33447019  0.94588829  0.50000000  1
  Ge  Ge1402  1  0.33447019  0.94588829  0.66666667  1
  Ge  Ge1403  1  0.33447019  0.94588829  0.83333333  1
  Ge  Ge1404  1  0.50113686  0.11255496  0.00000000  1
  Ge  Ge1405  1  0.50113686  0.11255496  0.16666667  1
  Ge  Ge1406  1  0.50113686  0.11255496  0.33333333  1
  Ge  Ge1407  1  0.50113686  0.11255496  0.50000000  1
  Ge  Ge1408  1  0.50113686  0.11255496  0.66666667  1
  Ge  Ge1409  1  0.50113686  0.11255496  0.83333333  1
  Ge  Ge1410  1  0.50113686  0.27922163  0.00000000  1
  Ge  Ge1411  1  0.50113686  0.27922163  0.16666667  1
  Ge  Ge1412  1  0.50113686  0.27922163  0.33333333  1
  Ge  Ge1413  1  0.50113686  0.27922163  0.50000000  1
  Ge  Ge1414  1  0.50113686  0.27922163  0.66666667  1
  Ge  Ge1415  1  0.50113686  0.27922163  0.83333333  1
  Ge  Ge1416  1  0.50113686  0.44588829  0.00000000  1
  Ge  Ge1417  1  0.50113686  0.44588829  0.16666667  1
  Ge  Ge1418  1  0.50113686  0.44588829  0.33333333  1
  Ge  Ge1419  1  0.50113686  0.44588829  0.50000000  1
  Ge  Ge1420  1  0.50113686  0.44588829  0.66666667  1
  Ge  Ge1421  1  0.50113686  0.44588829  0.83333333  1
  Ge  Ge1422  1  0.50113686  0.61255496  0.00000000  1
  Ge  Ge1423  1  0.50113686  0.61255496  0.16666667  1
  Ge  Ge1424  1  0.50113686  0.61255496  0.33333333  1
  Ge  Ge1425  1  0.50113686  0.61255496  0.50000000  1
  Ge  Ge1426  1  0.50113686  0.61255496  0.66666667  1
  Ge  Ge1427  1  0.50113686  0.61255496  0.83333333  1
  Ge  Ge1428  1  0.50113686  0.77922163  0.00000000  1
  Ge  Ge1429  1  0.50113686  0.77922163  0.16666667  1
  Ge  Ge1430  1  0.50113686  0.77922163  0.33333333  1
  Ge  Ge1431  1  0.50113686  0.77922163  0.50000000  1
  Ge  Ge1432  1  0.50113686  0.77922163  0.66666667  1
  Ge  Ge1433  1  0.50113686  0.77922163  0.83333333  1
  Ge  Ge1434  1  0.50113686  0.94588829  0.00000000  1
  Ge  Ge1435  1  0.50113686  0.94588829  0.16666667  1
  Ge  Ge1436  1  0.50113686  0.94588829  0.33333333  1
  Ge  Ge1437  1  0.50113686  0.94588829  0.50000000  1
  Ge  Ge1438  1  0.50113686  0.94588829  0.66666667  1
  Ge  Ge1439  1  0.50113686  0.94588829  0.83333333  1
  Ge  Ge1440  1  0.66780352  0.11255496  0.00000000  1
  Ge  Ge1441  1  0.66780352  0.11255496  0.16666667  1
  Ge  Ge1442  1  0.66780352  0.11255496  0.33333333  1
  Ge  Ge1443  1  0.66780352  0.11255496  0.50000000  1
  Ge  Ge1444  1  0.66780352  0.11255496  0.66666667  1
  Ge  Ge1445  1  0.66780352  0.11255496  0.83333333  1
  Ge  Ge1446  1  0.66780352  0.27922163  0.00000000  1
  Ge  Ge1447  1  0.66780352  0.27922163  0.16666667  1
  Ge  Ge1448  1  0.66780352  0.27922163  0.33333333  1
  Ge  Ge1449  1  0.66780352  0.27922163  0.50000000  1
  Ge  Ge1450  1  0.66780352  0.27922163  0.66666667  1
  Ge  Ge1451  1  0.66780352  0.27922163  0.83333333  1
  Ge  Ge1452  1  0.66780352  0.44588829  0.00000000  1
  Ge  Ge1453  1  0.66780352  0.44588829  0.16666667  1
  Ge  Ge1454  1  0.66780352  0.44588829  0.33333333  1
  Ge  Ge1455  1  0.66780352  0.44588829  0.50000000  1
  Ge  Ge1456  1  0.66780352  0.44588829  0.66666667  1
  Ge  Ge1457  1  0.66780352  0.44588829  0.83333333  1
  Ge  Ge1458  1  0.66780352  0.61255496  0.00000000  1
  Ge  Ge1459  1  0.66780352  0.61255496  0.16666667  1
  Ge  Ge1460  1  0.66780352  0.61255496  0.33333333  1
  Ge  Ge1461  1  0.66780352  0.61255496  0.50000000  1
  Ge  Ge1462  1  0.66780352  0.61255496  0.66666667  1
  Ge  Ge1463  1  0.66780352  0.61255496  0.83333333  1
  Ge  Ge1464  1  0.66780352  0.77922163  0.00000000  1
  Ge  Ge1465  1  0.66780352  0.77922163  0.16666667  1
  Ge  Ge1466  1  0.66780352  0.77922163  0.33333333  1
  Ge  Ge1467  1  0.66780352  0.77922163  0.50000000  1
  Ge  Ge1468  1  0.66780352  0.77922163  0.66666667  1
  Ge  Ge1469  1  0.66780352  0.77922163  0.83333333  1
  Ge  Ge1470  1  0.66780352  0.94588829  0.00000000  1
  Ge  Ge1471  1  0.66780352  0.94588829  0.16666667  1
  Ge  Ge1472  1  0.66780352  0.94588829  0.33333333  1
  Ge  Ge1473  1  0.66780352  0.94588829  0.50000000  1
  Ge  Ge1474  1  0.66780352  0.94588829  0.66666667  1
  Ge  Ge1475  1  0.66780352  0.94588829  0.83333333  1
  Ge  Ge1476  1  0.83447019  0.11255496  0.00000000  1
  Ge  Ge1477  1  0.83447019  0.11255496  0.16666667  1
  Ge  Ge1478  1  0.83447019  0.11255496  0.33333333  1
  Ge  Ge1479  1  0.83447019  0.11255496  0.50000000  1
  Ge  Ge1480  1  0.83447019  0.11255496  0.66666667  1
  Ge  Ge1481  1  0.83447019  0.11255496  0.83333333  1
  Ge  Ge1482  1  0.83447019  0.27922163  0.00000000  1
  Ge  Ge1483  1  0.83447019  0.27922163  0.16666667  1
  Ge  Ge1484  1  0.83447019  0.27922163  0.33333333  1
  Ge  Ge1485  1  0.83447019  0.27922163  0.50000000  1
  Ge  Ge1486  1  0.83447019  0.27922163  0.66666667  1
  Ge  Ge1487  1  0.83447019  0.27922163  0.83333333  1
  Ge  Ge1488  1  0.83447019  0.44588829  0.00000000  1
  Ge  Ge1489  1  0.83447019  0.44588829  0.16666667  1
  Ge  Ge1490  1  0.83447019  0.44588829  0.33333333  1
  Ge  Ge1491  1  0.83447019  0.44588829  0.50000000  1
  Ge  Ge1492  1  0.83447019  0.44588829  0.66666667  1
  Ge  Ge1493  1  0.83447019  0.44588829  0.83333333  1
  Ge  Ge1494  1  0.83447019  0.61255496  0.00000000  1
  Ge  Ge1495  1  0.83447019  0.61255496  0.16666667  1
  Ge  Ge1496  1  0.83447019  0.61255496  0.33333333  1
  Ge  Ge1497  1  0.83447019  0.61255496  0.50000000  1
  Ge  Ge1498  1  0.83447019  0.61255496  0.66666667  1
  Ge  Ge1499  1  0.83447019  0.61255496  0.83333333  1
  Ge  Ge1500  1  0.83447019  0.77922163  0.00000000  1
  Ge  Ge1501  1  0.83447019  0.77922163  0.16666667  1
  Ge  Ge1502  1  0.83447019  0.77922163  0.33333333  1
  Ge  Ge1503  1  0.83447019  0.77922163  0.50000000  1
  Ge  Ge1504  1  0.83447019  0.77922163  0.66666667  1
  Ge  Ge1505  1  0.83447019  0.77922163  0.83333333  1
  Ge  Ge1506  1  0.83447019  0.94588829  0.00000000  1
  Ge  Ge1507  1  0.83447019  0.94588829  0.16666667  1
  Ge  Ge1508  1  0.83447019  0.94588829  0.33333333  1
  Ge  Ge1509  1  0.83447019  0.94588829  0.50000000  1
  Ge  Ge1510  1  0.83447019  0.94588829  0.66666667  1
  Ge  Ge1511  1  0.83447019  0.94588829  0.83333333  1
  Ge  Ge1512  1  0.08447019  0.05411171  0.08333333  1
  Ge  Ge1513  1  0.08447019  0.05411171  0.25000000  1
  Ge  Ge1514  1  0.08447019  0.05411171  0.41666667  1
  Ge  Ge1515  1  0.08447019  0.05411171  0.58333333  1
  Ge  Ge1516  1  0.08447019  0.05411171  0.75000000  1
  Ge  Ge1517  1  0.08447019  0.05411171  0.91666667  1
  Ge  Ge1518  1  0.08447019  0.22077837  0.08333333  1
  Ge  Ge1519  1  0.08447019  0.22077837  0.25000000  1
  Ge  Ge1520  1  0.08447019  0.22077837  0.41666667  1
  Ge  Ge1521  1  0.08447019  0.22077837  0.58333333  1
  Ge  Ge1522  1  0.08447019  0.22077837  0.75000000  1
  Ge  Ge1523  1  0.08447019  0.22077837  0.91666667  1
  Ge  Ge1524  1  0.08447019  0.38744504  0.08333333  1
  Ge  Ge1525  1  0.08447019  0.38744504  0.25000000  1
  Ge  Ge1526  1  0.08447019  0.38744504  0.41666667  1
  Ge  Ge1527  1  0.08447019  0.38744504  0.58333333  1
  Ge  Ge1528  1  0.08447019  0.38744504  0.75000000  1
  Ge  Ge1529  1  0.08447019  0.38744504  0.91666667  1
  Ge  Ge1530  1  0.08447019  0.55411171  0.08333333  1
  Ge  Ge1531  1  0.08447019  0.55411171  0.25000000  1
  Ge  Ge1532  1  0.08447019  0.55411171  0.41666667  1
  Ge  Ge1533  1  0.08447019  0.55411171  0.58333333  1
  Ge  Ge1534  1  0.08447019  0.55411171  0.75000000  1
  Ge  Ge1535  1  0.08447019  0.55411171  0.91666667  1
  Ge  Ge1536  1  0.08447019  0.72077837  0.08333333  1
  Ge  Ge1537  1  0.08447019  0.72077837  0.25000000  1
  Ge  Ge1538  1  0.08447019  0.72077837  0.41666667  1
  Ge  Ge1539  1  0.08447019  0.72077837  0.58333333  1
  Ge  Ge1540  1  0.08447019  0.72077837  0.75000000  1
  Ge  Ge1541  1  0.08447019  0.72077837  0.91666667  1
  Ge  Ge1542  1  0.08447019  0.88744504  0.08333333  1
  Ge  Ge1543  1  0.08447019  0.88744504  0.25000000  1
  Ge  Ge1544  1  0.08447019  0.88744504  0.41666667  1
  Ge  Ge1545  1  0.08447019  0.88744504  0.58333333  1
  Ge  Ge1546  1  0.08447019  0.88744504  0.75000000  1
  Ge  Ge1547  1  0.08447019  0.88744504  0.91666667  1
  Ge  Ge1548  1  0.25113686  0.05411171  0.08333333  1
  Ge  Ge1549  1  0.25113686  0.05411171  0.25000000  1
  Ge  Ge1550  1  0.25113686  0.05411171  0.41666667  1
  Ge  Ge1551  1  0.25113686  0.05411171  0.58333333  1
  Ge  Ge1552  1  0.25113686  0.05411171  0.75000000  1
  Ge  Ge1553  1  0.25113686  0.05411171  0.91666667  1
  Ge  Ge1554  1  0.25113686  0.22077837  0.08333333  1
  Ge  Ge1555  1  0.25113686  0.22077837  0.25000000  1
  Ge  Ge1556  1  0.25113686  0.22077837  0.41666667  1
  Ge  Ge1557  1  0.25113686  0.22077837  0.58333333  1
  Ge  Ge1558  1  0.25113686  0.22077837  0.75000000  1
  Ge  Ge1559  1  0.25113686  0.22077837  0.91666667  1
  Ge  Ge1560  1  0.25113686  0.38744504  0.08333333  1
  Ge  Ge1561  1  0.25113686  0.38744504  0.25000000  1
  Ge  Ge1562  1  0.25113686  0.38744504  0.41666667  1
  Ge  Ge1563  1  0.25113686  0.38744504  0.58333333  1
  Ge  Ge1564  1  0.25113686  0.38744504  0.75000000  1
  Ge  Ge1565  1  0.25113686  0.38744504  0.91666667  1
  Ge  Ge1566  1  0.25113686  0.55411171  0.08333333  1
  Ge  Ge1567  1  0.25113686  0.55411171  0.25000000  1
  Ge  Ge1568  1  0.25113686  0.55411171  0.41666667  1
  Ge  Ge1569  1  0.25113686  0.55411171  0.58333333  1
  Ge  Ge1570  1  0.25113686  0.55411171  0.75000000  1
  Ge  Ge1571  1  0.25113686  0.55411171  0.91666667  1
  Ge  Ge1572  1  0.25113686  0.72077837  0.08333333  1
  Ge  Ge1573  1  0.25113686  0.72077837  0.25000000  1
  Ge  Ge1574  1  0.25113686  0.72077837  0.41666667  1
  Ge  Ge1575  1  0.25113686  0.72077837  0.58333333  1
  Ge  Ge1576  1  0.25113686  0.72077837  0.75000000  1
  Ge  Ge1577  1  0.25113686  0.72077837  0.91666667  1
  Ge  Ge1578  1  0.25113686  0.88744504  0.08333333  1
  Ge  Ge1579  1  0.25113686  0.88744504  0.25000000  1
  Ge  Ge1580  1  0.25113686  0.88744504  0.41666667  1
  Ge  Ge1581  1  0.25113686  0.88744504  0.58333333  1
  Ge  Ge1582  1  0.25113686  0.88744504  0.75000000  1
  Ge  Ge1583  1  0.25113686  0.88744504  0.91666667  1
  Ge  Ge1584  1  0.41780352  0.05411171  0.08333333  1
  Ge  Ge1585  1  0.41780352  0.05411171  0.25000000  1
  Ge  Ge1586  1  0.41780352  0.05411171  0.41666667  1
  Ge  Ge1587  1  0.41780352  0.05411171  0.58333333  1
  Ge  Ge1588  1  0.41780352  0.05411171  0.75000000  1
  Ge  Ge1589  1  0.41780352  0.05411171  0.91666667  1
  Ge  Ge1590  1  0.41780352  0.22077837  0.08333333  1
  Ge  Ge1591  1  0.41780352  0.22077837  0.25000000  1
  Ge  Ge1592  1  0.41780352  0.22077837  0.41666667  1
  Ge  Ge1593  1  0.41780352  0.22077837  0.58333333  1
  Ge  Ge1594  1  0.41780352  0.22077837  0.75000000  1
  Ge  Ge1595  1  0.41780352  0.22077837  0.91666667  1
  Ge  Ge1596  1  0.41780352  0.38744504  0.08333333  1
  Ge  Ge1597  1  0.41780352  0.38744504  0.25000000  1
  Ge  Ge1598  1  0.41780352  0.38744504  0.41666667  1
  Ge  Ge1599  1  0.41780352  0.38744504  0.58333333  1
  Ge  Ge1600  1  0.41780352  0.38744504  0.75000000  1
  Ge  Ge1601  1  0.41780352  0.38744504  0.91666667  1
  Ge  Ge1602  1  0.41780352  0.55411171  0.08333333  1
  Ge  Ge1603  1  0.41780352  0.55411171  0.25000000  1
  Ge  Ge1604  1  0.41780352  0.55411171  0.41666667  1
  Ge  Ge1605  1  0.41780352  0.55411171  0.58333333  1
  Ge  Ge1606  1  0.41780352  0.55411171  0.75000000  1
  Ge  Ge1607  1  0.41780352  0.55411171  0.91666667  1
  Ge  Ge1608  1  0.41780352  0.72077837  0.08333333  1
  Ge  Ge1609  1  0.41780352  0.72077837  0.25000000  1
  Ge  Ge1610  1  0.41780352  0.72077837  0.41666667  1
  Ge  Ge1611  1  0.41780352  0.72077837  0.58333333  1
  Ge  Ge1612  1  0.41780352  0.72077837  0.75000000  1
  Ge  Ge1613  1  0.41780352  0.72077837  0.91666667  1
  Ge  Ge1614  1  0.41780352  0.88744504  0.08333333  1
  Ge  Ge1615  1  0.41780352  0.88744504  0.25000000  1
  Ge  Ge1616  1  0.41780352  0.88744504  0.41666667  1
  Ge  Ge1617  1  0.41780352  0.88744504  0.58333333  1
  Ge  Ge1618  1  0.41780352  0.88744504  0.75000000  1
  Ge  Ge1619  1  0.41780352  0.88744504  0.91666667  1
  Ge  Ge1620  1  0.58447019  0.05411171  0.08333333  1
  Ge  Ge1621  1  0.58447019  0.05411171  0.25000000  1
  Ge  Ge1622  1  0.58447019  0.05411171  0.41666667  1
  Ge  Ge1623  1  0.58447019  0.05411171  0.58333333  1
  Ge  Ge1624  1  0.58447019  0.05411171  0.75000000  1
  Ge  Ge1625  1  0.58447019  0.05411171  0.91666667  1
  Ge  Ge1626  1  0.58447019  0.22077837  0.08333333  1
  Ge  Ge1627  1  0.58447019  0.22077837  0.25000000  1
  Ge  Ge1628  1  0.58447019  0.22077837  0.41666667  1
  Ge  Ge1629  1  0.58447019  0.22077837  0.58333333  1
  Ge  Ge1630  1  0.58447019  0.22077837  0.75000000  1
  Ge  Ge1631  1  0.58447019  0.22077837  0.91666667  1
  Ge  Ge1632  1  0.58447019  0.38744504  0.08333333  1
  Ge  Ge1633  1  0.58447019  0.38744504  0.25000000  1
  Ge  Ge1634  1  0.58447019  0.38744504  0.41666667  1
  Ge  Ge1635  1  0.58447019  0.38744504  0.58333333  1
  Ge  Ge1636  1  0.58447019  0.38744504  0.75000000  1
  Ge  Ge1637  1  0.58447019  0.38744504  0.91666667  1
  Ge  Ge1638  1  0.58447019  0.55411171  0.08333333  1
  Ge  Ge1639  1  0.58447019  0.55411171  0.25000000  1
  Ge  Ge1640  1  0.58447019  0.55411171  0.41666667  1
  Ge  Ge1641  1  0.58447019  0.55411171  0.58333333  1
  Ge  Ge1642  1  0.58447019  0.55411171  0.75000000  1
  Ge  Ge1643  1  0.58447019  0.55411171  0.91666667  1
  Ge  Ge1644  1  0.58447019  0.72077837  0.08333333  1
  Ge  Ge1645  1  0.58447019  0.72077837  0.25000000  1
  Ge  Ge1646  1  0.58447019  0.72077837  0.41666667  1
  Ge  Ge1647  1  0.58447019  0.72077837  0.58333333  1
  Ge  Ge1648  1  0.58447019  0.72077837  0.75000000  1
  Ge  Ge1649  1  0.58447019  0.72077837  0.91666667  1
  Ge  Ge1650  1  0.58447019  0.88744504  0.08333333  1
  Ge  Ge1651  1  0.58447019  0.88744504  0.25000000  1
  Ge  Ge1652  1  0.58447019  0.88744504  0.41666667  1
  Ge  Ge1653  1  0.58447019  0.88744504  0.58333333  1
  Ge  Ge1654  1  0.58447019  0.88744504  0.75000000  1
  Ge  Ge1655  1  0.58447019  0.88744504  0.91666667  1
  Ge  Ge1656  1  0.75113686  0.05411171  0.08333333  1
  Ge  Ge1657  1  0.75113686  0.05411171  0.25000000  1
  Ge  Ge1658  1  0.75113686  0.05411171  0.41666667  1
  Ge  Ge1659  1  0.75113686  0.05411171  0.58333333  1
  Ge  Ge1660  1  0.75113686  0.05411171  0.75000000  1
  Ge  Ge1661  1  0.75113686  0.05411171  0.91666667  1
  Ge  Ge1662  1  0.75113686  0.22077837  0.08333333  1
  Ge  Ge1663  1  0.75113686  0.22077837  0.25000000  1
  Ge  Ge1664  1  0.75113686  0.22077837  0.41666667  1
  Ge  Ge1665  1  0.75113686  0.22077837  0.58333333  1
  Ge  Ge1666  1  0.75113686  0.22077837  0.75000000  1
  Ge  Ge1667  1  0.75113686  0.22077837  0.91666667  1
  Ge  Ge1668  1  0.75113686  0.38744504  0.08333333  1
  Ge  Ge1669  1  0.75113686  0.38744504  0.25000000  1
  Ge  Ge1670  1  0.75113686  0.38744504  0.41666667  1
  Ge  Ge1671  1  0.75113686  0.38744504  0.58333333  1
  Ge  Ge1672  1  0.75113686  0.38744504  0.75000000  1
  Ge  Ge1673  1  0.75113686  0.38744504  0.91666667  1
  Ge  Ge1674  1  0.75113686  0.55411171  0.08333333  1
  Ge  Ge1675  1  0.75113686  0.55411171  0.25000000  1
  Ge  Ge1676  1  0.75113686  0.55411171  0.41666667  1
  Ge  Ge1677  1  0.75113686  0.55411171  0.58333333  1
  Ge  Ge1678  1  0.75113686  0.55411171  0.75000000  1
  Ge  Ge1679  1  0.75113686  0.55411171  0.91666667  1
  Ge  Ge1680  1  0.75113686  0.72077837  0.08333333  1
  Ge  Ge1681  1  0.75113686  0.72077837  0.25000000  1
  Ge  Ge1682  1  0.75113686  0.72077837  0.41666667  1
  Ge  Ge1683  1  0.75113686  0.72077837  0.58333333  1
  Ge  Ge1684  1  0.75113686  0.72077837  0.75000000  1
  Ge  Ge1685  1  0.75113686  0.72077837  0.91666667  1
  Ge  Ge1686  1  0.75113686  0.88744504  0.08333333  1
  Ge  Ge1687  1  0.75113686  0.88744504  0.25000000  1
  Ge  Ge1688  1  0.75113686  0.88744504  0.41666667  1
  Ge  Ge1689  1  0.75113686  0.88744504  0.58333333  1
  Ge  Ge1690  1  0.75113686  0.88744504  0.75000000  1
  Ge  Ge1691  1  0.75113686  0.88744504  0.91666667  1
  Ge  Ge1692  1  0.91780352  0.05411171  0.08333333  1
  Ge  Ge1693  1  0.91780352  0.05411171  0.25000000  1
  Ge  Ge1694  1  0.91780352  0.05411171  0.41666667  1
  Ge  Ge1695  1  0.91780352  0.05411171  0.58333333  1
  Ge  Ge1696  1  0.91780352  0.05411171  0.75000000  1
  Ge  Ge1697  1  0.91780352  0.05411171  0.91666667  1
  Ge  Ge1698  1  0.91780352  0.22077837  0.08333333  1
  Ge  Ge1699  1  0.91780352  0.22077837  0.25000000  1
  Ge  Ge1700  1  0.91780352  0.22077837  0.41666667  1
  Ge  Ge1701  1  0.91780352  0.22077837  0.58333333  1
  Ge  Ge1702  1  0.91780352  0.22077837  0.75000000  1
  Ge  Ge1703  1  0.91780352  0.22077837  0.91666667  1
  Ge  Ge1704  1  0.91780352  0.38744504  0.08333333  1
  Ge  Ge1705  1  0.91780352  0.38744504  0.25000000  1
  Ge  Ge1706  1  0.91780352  0.38744504  0.41666667  1
  Ge  Ge1707  1  0.91780352  0.38744504  0.58333333  1
  Ge  Ge1708  1  0.91780352  0.38744504  0.75000000  1
  Ge  Ge1709  1  0.91780352  0.38744504  0.91666667  1
  Ge  Ge1710  1  0.91780352  0.55411171  0.08333333  1
  Ge  Ge1711  1  0.91780352  0.55411171  0.25000000  1
  Ge  Ge1712  1  0.91780352  0.55411171  0.41666667  1
  Ge  Ge1713  1  0.91780352  0.55411171  0.58333333  1
  Ge  Ge1714  1  0.91780352  0.55411171  0.75000000  1
  Ge  Ge1715  1  0.91780352  0.55411171  0.91666667  1
  Ge  Ge1716  1  0.91780352  0.72077837  0.08333333  1
  Ge  Ge1717  1  0.91780352  0.72077837  0.25000000  1
  Ge  Ge1718  1  0.91780352  0.72077837  0.41666667  1
  Ge  Ge1719  1  0.91780352  0.72077837  0.58333333  1
  Ge  Ge1720  1  0.91780352  0.72077837  0.75000000  1
  Ge  Ge1721  1  0.91780352  0.72077837  0.91666667  1
  Ge  Ge1722  1  0.91780352  0.88744504  0.08333333  1
  Ge  Ge1723  1  0.91780352  0.88744504  0.25000000  1
  Ge  Ge1724  1  0.91780352  0.88744504  0.41666667  1
  Ge  Ge1725  1  0.91780352  0.88744504  0.58333333  1
  Ge  Ge1726  1  0.91780352  0.88744504  0.75000000  1
  Ge  Ge1727  1  0.91780352  0.88744504  0.91666667  1
  O  O1728  1  0.14925869  0.06117845  0.00000000  1
  O  O1729  1  0.14925869  0.06117845  0.16666667  1
  O  O1730  1  0.14925869  0.06117845  0.33333333  1
  O  O1731  1  0.14925869  0.06117845  0.50000000  1
  O  O1732  1  0.14925869  0.06117845  0.66666667  1
  O  O1733  1  0.14925869  0.06117845  0.83333333  1
  O  O1734  1  0.14925869  0.22784512  0.00000000  1
  O  O1735  1  0.14925869  0.22784512  0.16666667  1
  O  O1736  1  0.14925869  0.22784512  0.33333333  1
  O  O1737  1  0.14925869  0.22784512  0.50000000  1
  O  O1738  1  0.14925869  0.22784512  0.66666667  1
  O  O1739  1  0.14925869  0.22784512  0.83333333  1
  O  O1740  1  0.14925869  0.39451178  0.00000000  1
  O  O1741  1  0.14925869  0.39451178  0.16666667  1
  O  O1742  1  0.14925869  0.39451178  0.33333333  1
  O  O1743  1  0.14925869  0.39451178  0.50000000  1
  O  O1744  1  0.14925869  0.39451178  0.66666667  1
  O  O1745  1  0.14925869  0.39451178  0.83333333  1
  O  O1746  1  0.14925869  0.56117845  0.00000000  1
  O  O1747  1  0.14925869  0.56117845  0.16666667  1
  O  O1748  1  0.14925869  0.56117845  0.33333333  1
  O  O1749  1  0.14925869  0.56117845  0.50000000  1
  O  O1750  1  0.14925869  0.56117845  0.66666667  1
  O  O1751  1  0.14925869  0.56117845  0.83333333  1
  O  O1752  1  0.14925869  0.72784511  0.00000000  1
  O  O1753  1  0.14925869  0.72784511  0.16666667  1
  O  O1754  1  0.14925869  0.72784511  0.33333333  1
  O  O1755  1  0.14925869  0.72784511  0.50000000  1
  O  O1756  1  0.14925869  0.72784511  0.66666667  1
  O  O1757  1  0.14925869  0.72784511  0.83333333  1
  O  O1758  1  0.14925869  0.89451178  0.00000000  1
  O  O1759  1  0.14925869  0.89451178  0.16666667  1
  O  O1760  1  0.14925869  0.89451178  0.33333333  1
  O  O1761  1  0.14925869  0.89451178  0.50000000  1
  O  O1762  1  0.14925869  0.89451178  0.66666667  1
  O  O1763  1  0.14925869  0.89451178  0.83333333  1
  O  O1764  1  0.31592536  0.06117845  0.00000000  1
  O  O1765  1  0.31592536  0.06117845  0.16666667  1
  O  O1766  1  0.31592536  0.06117845  0.33333333  1
  O  O1767  1  0.31592536  0.06117845  0.50000000  1
  O  O1768  1  0.31592536  0.06117845  0.66666667  1
  O  O1769  1  0.31592536  0.06117845  0.83333333  1
  O  O1770  1  0.31592536  0.22784512  0.00000000  1
  O  O1771  1  0.31592536  0.22784512  0.16666667  1
  O  O1772  1  0.31592536  0.22784512  0.33333333  1
  O  O1773  1  0.31592536  0.22784512  0.50000000  1
  O  O1774  1  0.31592536  0.22784512  0.66666667  1
  O  O1775  1  0.31592536  0.22784512  0.83333333  1
  O  O1776  1  0.31592536  0.39451178  0.00000000  1
  O  O1777  1  0.31592536  0.39451178  0.16666667  1
  O  O1778  1  0.31592536  0.39451178  0.33333333  1
  O  O1779  1  0.31592536  0.39451178  0.50000000  1
  O  O1780  1  0.31592536  0.39451178  0.66666667  1
  O  O1781  1  0.31592536  0.39451178  0.83333333  1
  O  O1782  1  0.31592536  0.56117845  0.00000000  1
  O  O1783  1  0.31592536  0.56117845  0.16666667  1
  O  O1784  1  0.31592536  0.56117845  0.33333333  1
  O  O1785  1  0.31592536  0.56117845  0.50000000  1
  O  O1786  1  0.31592536  0.56117845  0.66666667  1
  O  O1787  1  0.31592536  0.56117845  0.83333333  1
  O  O1788  1  0.31592536  0.72784511  0.00000000  1
  O  O1789  1  0.31592536  0.72784511  0.16666667  1
  O  O1790  1  0.31592536  0.72784511  0.33333333  1
  O  O1791  1  0.31592536  0.72784511  0.50000000  1
  O  O1792  1  0.31592536  0.72784511  0.66666667  1
  O  O1793  1  0.31592536  0.72784511  0.83333333  1
  O  O1794  1  0.31592536  0.89451178  0.00000000  1
  O  O1795  1  0.31592536  0.89451178  0.16666667  1
  O  O1796  1  0.31592536  0.89451178  0.33333333  1
  O  O1797  1  0.31592536  0.89451178  0.50000000  1
  O  O1798  1  0.31592536  0.89451178  0.66666667  1
  O  O1799  1  0.31592536  0.89451178  0.83333333  1
  O  O1800  1  0.48259203  0.06117845  0.00000000  1
  O  O1801  1  0.48259203  0.06117845  0.16666667  1
  O  O1802  1  0.48259203  0.06117845  0.33333333  1
  O  O1803  1  0.48259203  0.06117845  0.50000000  1
  O  O1804  1  0.48259203  0.06117845  0.66666667  1
  O  O1805  1  0.48259203  0.06117845  0.83333333  1
  O  O1806  1  0.48259203  0.22784512  0.00000000  1
  O  O1807  1  0.48259203  0.22784512  0.16666667  1
  O  O1808  1  0.48259203  0.22784512  0.33333333  1
  O  O1809  1  0.48259203  0.22784512  0.50000000  1
  O  O1810  1  0.48259203  0.22784512  0.66666667  1
  O  O1811  1  0.48259203  0.22784512  0.83333333  1
  O  O1812  1  0.48259203  0.39451178  0.00000000  1
  O  O1813  1  0.48259203  0.39451178  0.16666667  1
  O  O1814  1  0.48259203  0.39451178  0.33333333  1
  O  O1815  1  0.48259203  0.39451178  0.50000000  1
  O  O1816  1  0.48259203  0.39451178  0.66666667  1
  O  O1817  1  0.48259203  0.39451178  0.83333333  1
  O  O1818  1  0.48259203  0.56117845  0.00000000  1
  O  O1819  1  0.48259203  0.56117845  0.16666667  1
  O  O1820  1  0.48259203  0.56117845  0.33333333  1
  O  O1821  1  0.48259203  0.56117845  0.50000000  1
  O  O1822  1  0.48259203  0.56117845  0.66666667  1
  O  O1823  1  0.48259203  0.56117845  0.83333333  1
  O  O1824  1  0.48259203  0.72784511  0.00000000  1
  O  O1825  1  0.48259203  0.72784511  0.16666667  1
  O  O1826  1  0.48259203  0.72784511  0.33333333  1
  O  O1827  1  0.48259203  0.72784511  0.50000000  1
  O  O1828  1  0.48259203  0.72784511  0.66666667  1
  O  O1829  1  0.48259203  0.72784511  0.83333333  1
  O  O1830  1  0.48259203  0.89451178  0.00000000  1
  O  O1831  1  0.48259203  0.89451178  0.16666667  1
  O  O1832  1  0.48259203  0.89451178  0.33333333  1
  O  O1833  1  0.48259203  0.89451178  0.50000000  1
  O  O1834  1  0.48259203  0.89451178  0.66666667  1
  O  O1835  1  0.48259203  0.89451178  0.83333333  1
  O  O1836  1  0.64925869  0.06117845  0.00000000  1
  O  O1837  1  0.64925869  0.06117845  0.16666667  1
  O  O1838  1  0.64925869  0.06117845  0.33333333  1
  O  O1839  1  0.64925869  0.06117845  0.50000000  1
  O  O1840  1  0.64925869  0.06117845  0.66666667  1
  O  O1841  1  0.64925869  0.06117845  0.83333333  1
  O  O1842  1  0.64925869  0.22784512  0.00000000  1
  O  O1843  1  0.64925869  0.22784512  0.16666667  1
  O  O1844  1  0.64925869  0.22784512  0.33333333  1
  O  O1845  1  0.64925869  0.22784512  0.50000000  1
  O  O1846  1  0.64925869  0.22784512  0.66666667  1
  O  O1847  1  0.64925869  0.22784512  0.83333333  1
  O  O1848  1  0.64925869  0.39451178  0.00000000  1
  O  O1849  1  0.64925869  0.39451178  0.16666667  1
  O  O1850  1  0.64925869  0.39451178  0.33333333  1
  O  O1851  1  0.64925869  0.39451178  0.50000000  1
  O  O1852  1  0.64925869  0.39451178  0.66666667  1
  O  O1853  1  0.64925869  0.39451178  0.83333333  1
  O  O1854  1  0.64925869  0.56117845  0.00000000  1
  O  O1855  1  0.64925869  0.56117845  0.16666667  1
  O  O1856  1  0.64925869  0.56117845  0.33333333  1
  O  O1857  1  0.64925869  0.56117845  0.50000000  1
  O  O1858  1  0.64925869  0.56117845  0.66666667  1
  O  O1859  1  0.64925869  0.56117845  0.83333333  1
  O  O1860  1  0.64925869  0.72784511  0.00000000  1
  O  O1861  1  0.64925869  0.72784511  0.16666667  1
  O  O1862  1  0.64925869  0.72784511  0.33333333  1
  O  O1863  1  0.64925869  0.72784511  0.50000000  1
  O  O1864  1  0.64925869  0.72784511  0.66666667  1
  O  O1865  1  0.64925869  0.72784511  0.83333333  1
  O  O1866  1  0.64925869  0.89451178  0.00000000  1
  O  O1867  1  0.64925869  0.89451178  0.16666667  1
  O  O1868  1  0.64925869  0.89451178  0.33333333  1
  O  O1869  1  0.64925869  0.89451178  0.50000000  1
  O  O1870  1  0.64925869  0.89451178  0.66666667  1
  O  O1871  1  0.64925869  0.89451178  0.83333333  1
  O  O1872  1  0.81592536  0.06117845  0.00000000  1
  O  O1873  1  0.81592536  0.06117845  0.16666667  1
  O  O1874  1  0.81592536  0.06117845  0.33333333  1
  O  O1875  1  0.81592536  0.06117845  0.50000000  1
  O  O1876  1  0.81592536  0.06117845  0.66666667  1
  O  O1877  1  0.81592536  0.06117845  0.83333333  1
  O  O1878  1  0.81592536  0.22784512  0.00000000  1
  O  O1879  1  0.81592536  0.22784512  0.16666667  1
  O  O1880  1  0.81592536  0.22784512  0.33333333  1
  O  O1881  1  0.81592536  0.22784512  0.50000000  1
  O  O1882  1  0.81592536  0.22784512  0.66666667  1
  O  O1883  1  0.81592536  0.22784512  0.83333333  1
  O  O1884  1  0.81592536  0.39451178  0.00000000  1
  O  O1885  1  0.81592536  0.39451178  0.16666667  1
  O  O1886  1  0.81592536  0.39451178  0.33333333  1
  O  O1887  1  0.81592536  0.39451178  0.50000000  1
  O  O1888  1  0.81592536  0.39451178  0.66666667  1
  O  O1889  1  0.81592536  0.39451178  0.83333333  1
  O  O1890  1  0.81592536  0.56117845  0.00000000  1
  O  O1891  1  0.81592536  0.56117845  0.16666667  1
  O  O1892  1  0.81592536  0.56117845  0.33333333  1
  O  O1893  1  0.81592536  0.56117845  0.50000000  1
  O  O1894  1  0.81592536  0.56117845  0.66666667  1
  O  O1895  1  0.81592536  0.56117845  0.83333333  1
  O  O1896  1  0.81592536  0.72784511  0.00000000  1
  O  O1897  1  0.81592536  0.72784511  0.16666667  1
  O  O1898  1  0.81592536  0.72784511  0.33333333  1
  O  O1899  1  0.81592536  0.72784511  0.50000000  1
  O  O1900  1  0.81592536  0.72784511  0.66666667  1
  O  O1901  1  0.81592536  0.72784511  0.83333333  1
  O  O1902  1  0.81592536  0.89451178  0.00000000  1
  O  O1903  1  0.81592536  0.89451178  0.16666667  1
  O  O1904  1  0.81592536  0.89451178  0.33333333  1
  O  O1905  1  0.81592536  0.89451178  0.50000000  1
  O  O1906  1  0.81592536  0.89451178  0.66666667  1
  O  O1907  1  0.81592536  0.89451178  0.83333333  1
  O  O1908  1  0.98259203  0.06117845  0.00000000  1
  O  O1909  1  0.98259203  0.06117845  0.16666667  1
  O  O1910  1  0.98259203  0.06117845  0.33333333  1
  O  O1911  1  0.98259203  0.06117845  0.50000000  1
  O  O1912  1  0.98259203  0.06117845  0.66666667  1
  O  O1913  1  0.98259203  0.06117845  0.83333333  1
  O  O1914  1  0.98259203  0.22784512  0.00000000  1
  O  O1915  1  0.98259203  0.22784512  0.16666667  1
  O  O1916  1  0.98259203  0.22784512  0.33333333  1
  O  O1917  1  0.98259203  0.22784512  0.50000000  1
  O  O1918  1  0.98259203  0.22784512  0.66666667  1
  O  O1919  1  0.98259203  0.22784512  0.83333333  1
  O  O1920  1  0.98259203  0.39451178  0.00000000  1
  O  O1921  1  0.98259203  0.39451178  0.16666667  1
  O  O1922  1  0.98259203  0.39451178  0.33333333  1
  O  O1923  1  0.98259203  0.39451178  0.50000000  1
  O  O1924  1  0.98259203  0.39451178  0.66666667  1
  O  O1925  1  0.98259203  0.39451178  0.83333333  1
  O  O1926  1  0.98259203  0.56117845  0.00000000  1
  O  O1927  1  0.98259203  0.56117845  0.16666667  1
  O  O1928  1  0.98259203  0.56117845  0.33333333  1
  O  O1929  1  0.98259203  0.56117845  0.50000000  1
  O  O1930  1  0.98259203  0.56117845  0.66666667  1
  O  O1931  1  0.98259203  0.56117845  0.83333333  1
  O  O1932  1  0.98259203  0.72784511  0.00000000  1
  O  O1933  1  0.98259203  0.72784511  0.16666667  1
  O  O1934  1  0.98259203  0.72784511  0.33333333  1
  O  O1935  1  0.98259203  0.72784511  0.50000000  1
  O  O1936  1  0.98259203  0.72784511  0.66666667  1
  O  O1937  1  0.98259203  0.72784511  0.83333333  1
  O  O1938  1  0.98259203  0.89451178  0.00000000  1
  O  O1939  1  0.98259203  0.89451178  0.16666667  1
  O  O1940  1  0.98259203  0.89451178  0.33333333  1
  O  O1941  1  0.98259203  0.89451178  0.50000000  1
  O  O1942  1  0.98259203  0.89451178  0.66666667  1
  O  O1943  1  0.98259203  0.89451178  0.83333333  1
  O  O1944  1  0.06592536  0.10548822  0.08333333  1
  O  O1945  1  0.06592536  0.10548822  0.25000000  1
  O  O1946  1  0.06592536  0.10548822  0.41666667  1
  O  O1947  1  0.06592536  0.10548822  0.58333333  1
  O  O1948  1  0.06592536  0.10548822  0.75000000  1
  O  O1949  1  0.06592536  0.10548822  0.91666667  1
  O  O1950  1  0.06592536  0.27215488  0.08333333  1
  O  O1951  1  0.06592536  0.27215488  0.25000000  1
  O  O1952  1  0.06592536  0.27215488  0.41666667  1
  O  O1953  1  0.06592536  0.27215488  0.58333333  1
  O  O1954  1  0.06592536  0.27215488  0.75000000  1
  O  O1955  1  0.06592536  0.27215488  0.91666667  1
  O  O1956  1  0.06592536  0.43882155  0.08333333  1
  O  O1957  1  0.06592536  0.43882155  0.25000000  1
  O  O1958  1  0.06592536  0.43882155  0.41666667  1
  O  O1959  1  0.06592536  0.43882155  0.58333333  1
  O  O1960  1  0.06592536  0.43882155  0.75000000  1
  O  O1961  1  0.06592536  0.43882155  0.91666667  1
  O  O1962  1  0.06592536  0.60548822  0.08333333  1
  O  O1963  1  0.06592536  0.60548822  0.25000000  1
  O  O1964  1  0.06592536  0.60548822  0.41666667  1
  O  O1965  1  0.06592536  0.60548822  0.58333333  1
  O  O1966  1  0.06592536  0.60548822  0.75000000  1
  O  O1967  1  0.06592536  0.60548822  0.91666667  1
  O  O1968  1  0.06592536  0.77215488  0.08333333  1
  O  O1969  1  0.06592536  0.77215488  0.25000000  1
  O  O1970  1  0.06592536  0.77215488  0.41666667  1
  O  O1971  1  0.06592536  0.77215488  0.58333333  1
  O  O1972  1  0.06592536  0.77215488  0.75000000  1
  O  O1973  1  0.06592536  0.77215488  0.91666667  1
  O  O1974  1  0.06592536  0.93882155  0.08333333  1
  O  O1975  1  0.06592536  0.93882155  0.25000000  1
  O  O1976  1  0.06592536  0.93882155  0.41666667  1
  O  O1977  1  0.06592536  0.93882155  0.58333333  1
  O  O1978  1  0.06592536  0.93882155  0.75000000  1
  O  O1979  1  0.06592536  0.93882155  0.91666667  1
  O  O1980  1  0.23259203  0.10548822  0.08333333  1
  O  O1981  1  0.23259203  0.10548822  0.25000000  1
  O  O1982  1  0.23259203  0.10548822  0.41666667  1
  O  O1983  1  0.23259203  0.10548822  0.58333333  1
  O  O1984  1  0.23259203  0.10548822  0.75000000  1
  O  O1985  1  0.23259203  0.10548822  0.91666667  1
  O  O1986  1  0.23259203  0.27215488  0.08333333  1
  O  O1987  1  0.23259203  0.27215488  0.25000000  1
  O  O1988  1  0.23259203  0.27215488  0.41666667  1
  O  O1989  1  0.23259203  0.27215488  0.58333333  1
  O  O1990  1  0.23259203  0.27215488  0.75000000  1
  O  O1991  1  0.23259203  0.27215488  0.91666667  1
  O  O1992  1  0.23259203  0.43882155  0.08333333  1
  O  O1993  1  0.23259203  0.43882155  0.25000000  1
  O  O1994  1  0.23259203  0.43882155  0.41666667  1
  O  O1995  1  0.23259203  0.43882155  0.58333333  1
  O  O1996  1  0.23259203  0.43882155  0.75000000  1
  O  O1997  1  0.23259203  0.43882155  0.91666667  1
  O  O1998  1  0.23259203  0.60548822  0.08333333  1
  O  O1999  1  0.23259203  0.60548822  0.25000000  1
  O  O2000  1  0.23259203  0.60548822  0.41666667  1
  O  O2001  1  0.23259203  0.60548822  0.58333333  1
  O  O2002  1  0.23259203  0.60548822  0.75000000  1
  O  O2003  1  0.23259203  0.60548822  0.91666667  1
  O  O2004  1  0.23259203  0.77215488  0.08333333  1
  O  O2005  1  0.23259203  0.77215488  0.25000000  1
  O  O2006  1  0.23259203  0.77215488  0.41666667  1
  O  O2007  1  0.23259203  0.77215488  0.58333333  1
  O  O2008  1  0.23259203  0.77215488  0.75000000  1
  O  O2009  1  0.23259203  0.77215488  0.91666667  1
  O  O2010  1  0.23259203  0.93882155  0.08333333  1
  O  O2011  1  0.23259203  0.93882155  0.25000000  1
  O  O2012  1  0.23259203  0.93882155  0.41666667  1
  O  O2013  1  0.23259203  0.93882155  0.58333333  1
  O  O2014  1  0.23259203  0.93882155  0.75000000  1
  O  O2015  1  0.23259203  0.93882155  0.91666667  1
  O  O2016  1  0.39925869  0.10548822  0.08333333  1
  O  O2017  1  0.39925869  0.10548822  0.25000000  1
  O  O2018  1  0.39925869  0.10548822  0.41666667  1
  O  O2019  1  0.39925869  0.10548822  0.58333333  1
  O  O2020  1  0.39925869  0.10548822  0.75000000  1
  O  O2021  1  0.39925869  0.10548822  0.91666667  1
  O  O2022  1  0.39925869  0.27215488  0.08333333  1
  O  O2023  1  0.39925869  0.27215488  0.25000000  1
  O  O2024  1  0.39925869  0.27215488  0.41666667  1
  O  O2025  1  0.39925869  0.27215488  0.58333333  1
  O  O2026  1  0.39925869  0.27215488  0.75000000  1
  O  O2027  1  0.39925869  0.27215488  0.91666667  1
  O  O2028  1  0.39925869  0.43882155  0.08333333  1
  O  O2029  1  0.39925869  0.43882155  0.25000000  1
  O  O2030  1  0.39925869  0.43882155  0.41666667  1
  O  O2031  1  0.39925869  0.43882155  0.58333333  1
  O  O2032  1  0.39925869  0.43882155  0.75000000  1
  O  O2033  1  0.39925869  0.43882155  0.91666667  1
  O  O2034  1  0.39925869  0.60548822  0.08333333  1
  O  O2035  1  0.39925869  0.60548822  0.25000000  1
  O  O2036  1  0.39925869  0.60548822  0.41666667  1
  O  O2037  1  0.39925869  0.60548822  0.58333333  1
  O  O2038  1  0.39925869  0.60548822  0.75000000  1
  O  O2039  1  0.39925869  0.60548822  0.91666667  1
  O  O2040  1  0.39925869  0.77215488  0.08333333  1
  O  O2041  1  0.39925869  0.77215488  0.25000000  1
  O  O2042  1  0.39925869  0.77215488  0.41666667  1
  O  O2043  1  0.39925869  0.77215488  0.58333333  1
  O  O2044  1  0.39925869  0.77215488  0.75000000  1
  O  O2045  1  0.39925869  0.77215488  0.91666667  1
  O  O2046  1  0.39925869  0.93882155  0.08333333  1
  O  O2047  1  0.39925869  0.93882155  0.25000000  1
  O  O2048  1  0.39925869  0.93882155  0.41666667  1
  O  O2049  1  0.39925869  0.93882155  0.58333333  1
  O  O2050  1  0.39925869  0.93882155  0.75000000  1
  O  O2051  1  0.39925869  0.93882155  0.91666667  1
  O  O2052  1  0.56592536  0.10548822  0.08333333  1
  O  O2053  1  0.56592536  0.10548822  0.25000000  1
  O  O2054  1  0.56592536  0.10548822  0.41666667  1
  O  O2055  1  0.56592536  0.10548822  0.58333333  1
  O  O2056  1  0.56592536  0.10548822  0.75000000  1
  O  O2057  1  0.56592536  0.10548822  0.91666667  1
  O  O2058  1  0.56592536  0.27215488  0.08333333  1
  O  O2059  1  0.56592536  0.27215488  0.25000000  1
  O  O2060  1  0.56592536  0.27215488  0.41666667  1
  O  O2061  1  0.56592536  0.27215488  0.58333333  1
  O  O2062  1  0.56592536  0.27215488  0.75000000  1
  O  O2063  1  0.56592536  0.27215488  0.91666667  1
  O  O2064  1  0.56592536  0.43882155  0.08333333  1
  O  O2065  1  0.56592536  0.43882155  0.25000000  1
  O  O2066  1  0.56592536  0.43882155  0.41666667  1
  O  O2067  1  0.56592536  0.43882155  0.58333333  1
  O  O2068  1  0.56592536  0.43882155  0.75000000  1
  O  O2069  1  0.56592536  0.43882155  0.91666667  1
  O  O2070  1  0.56592536  0.60548822  0.08333333  1
  O  O2071  1  0.56592536  0.60548822  0.25000000  1
  O  O2072  1  0.56592536  0.60548822  0.41666667  1
  O  O2073  1  0.56592536  0.60548822  0.58333333  1
  O  O2074  1  0.56592536  0.60548822  0.75000000  1
  O  O2075  1  0.56592536  0.60548822  0.91666667  1
  O  O2076  1  0.56592536  0.77215488  0.08333333  1
  O  O2077  1  0.56592536  0.77215488  0.25000000  1
  O  O2078  1  0.56592536  0.77215488  0.41666667  1
  O  O2079  1  0.56592536  0.77215488  0.58333333  1
  O  O2080  1  0.56592536  0.77215488  0.75000000  1
  O  O2081  1  0.56592536  0.77215488  0.91666667  1
  O  O2082  1  0.56592536  0.93882155  0.08333333  1
  O  O2083  1  0.56592536  0.93882155  0.25000000  1
  O  O2084  1  0.56592536  0.93882155  0.41666667  1
  O  O2085  1  0.56592536  0.93882155  0.58333333  1
  O  O2086  1  0.56592536  0.93882155  0.75000000  1
  O  O2087  1  0.56592536  0.93882155  0.91666667  1
  O  O2088  1  0.73259203  0.10548822  0.08333333  1
  O  O2089  1  0.73259203  0.10548822  0.25000000  1
  O  O2090  1  0.73259203  0.10548822  0.41666667  1
  O  O2091  1  0.73259203  0.10548822  0.58333333  1
  O  O2092  1  0.73259203  0.10548822  0.75000000  1
  O  O2093  1  0.73259203  0.10548822  0.91666667  1
  O  O2094  1  0.73259203  0.27215488  0.08333333  1
  O  O2095  1  0.73259203  0.27215488  0.25000000  1
  O  O2096  1  0.73259203  0.27215488  0.41666667  1
  O  O2097  1  0.73259203  0.27215488  0.58333333  1
  O  O2098  1  0.73259203  0.27215488  0.75000000  1
  O  O2099  1  0.73259203  0.27215488  0.91666667  1
  O  O2100  1  0.73259203  0.43882155  0.08333333  1
  O  O2101  1  0.73259203  0.43882155  0.25000000  1
  O  O2102  1  0.73259203  0.43882155  0.41666667  1
  O  O2103  1  0.73259203  0.43882155  0.58333333  1
  O  O2104  1  0.73259203  0.43882155  0.75000000  1
  O  O2105  1  0.73259203  0.43882155  0.91666667  1
  O  O2106  1  0.73259203  0.60548822  0.08333333  1
  O  O2107  1  0.73259203  0.60548822  0.25000000  1
  O  O2108  1  0.73259203  0.60548822  0.41666667  1
  O  O2109  1  0.73259203  0.60548822  0.58333333  1
  O  O2110  1  0.73259203  0.60548822  0.75000000  1
  O  O2111  1  0.73259203  0.60548822  0.91666667  1
  O  O2112  1  0.73259203  0.77215488  0.08333333  1
  O  O2113  1  0.73259203  0.77215488  0.25000000  1
  O  O2114  1  0.73259203  0.77215488  0.41666667  1
  O  O2115  1  0.73259203  0.77215488  0.58333333  1
  O  O2116  1  0.73259203  0.77215488  0.75000000  1
  O  O2117  1  0.73259203  0.77215488  0.91666667  1
  O  O2118  1  0.73259203  0.93882155  0.08333333  1
  O  O2119  1  0.73259203  0.93882155  0.25000000  1
  O  O2120  1  0.73259203  0.93882155  0.41666667  1
  O  O2121  1  0.73259203  0.93882155  0.58333333  1
  O  O2122  1  0.73259203  0.93882155  0.75000000  1
  O  O2123  1  0.73259203  0.93882155  0.91666667  1
  O  O2124  1  0.89925869  0.10548822  0.08333333  1
  O  O2125  1  0.89925869  0.10548822  0.25000000  1
  O  O2126  1  0.89925869  0.10548822  0.41666667  1
  O  O2127  1  0.89925869  0.10548822  0.58333333  1
  O  O2128  1  0.89925869  0.10548822  0.75000000  1
  O  O2129  1  0.89925869  0.10548822  0.91666667  1
  O  O2130  1  0.89925869  0.27215488  0.08333333  1
  O  O2131  1  0.89925869  0.27215488  0.25000000  1
  O  O2132  1  0.89925869  0.27215488  0.41666667  1
  O  O2133  1  0.89925869  0.27215488  0.58333333  1
  O  O2134  1  0.89925869  0.27215488  0.75000000  1
  O  O2135  1  0.89925869  0.27215488  0.91666667  1
  O  O2136  1  0.89925869  0.43882155  0.08333333  1
  O  O2137  1  0.89925869  0.43882155  0.25000000  1
  O  O2138  1  0.89925869  0.43882155  0.41666667  1
  O  O2139  1  0.89925869  0.43882155  0.58333333  1
  O  O2140  1  0.89925869  0.43882155  0.75000000  1
  O  O2141  1  0.89925869  0.43882155  0.91666667  1
  O  O2142  1  0.89925869  0.60548822  0.08333333  1
  O  O2143  1  0.89925869  0.60548822  0.25000000  1
  O  O2144  1  0.89925869  0.60548822  0.41666667  1
  O  O2145  1  0.89925869  0.60548822  0.58333333  1
  O  O2146  1  0.89925869  0.60548822  0.75000000  1
  O  O2147  1  0.89925869  0.60548822  0.91666667  1
  O  O2148  1  0.89925869  0.77215488  0.08333333  1
  O  O2149  1  0.89925869  0.77215488  0.25000000  1
  O  O2150  1  0.89925869  0.77215488  0.41666667  1
  O  O2151  1  0.89925869  0.77215488  0.58333333  1
  O  O2152  1  0.89925869  0.77215488  0.75000000  1
  O  O2153  1  0.89925869  0.77215488  0.91666667  1
  O  O2154  1  0.89925869  0.93882155  0.08333333  1
  O  O2155  1  0.89925869  0.93882155  0.25000000  1
  O  O2156  1  0.89925869  0.93882155  0.41666667  1
  O  O2157  1  0.89925869  0.93882155  0.58333333  1
  O  O2158  1  0.89925869  0.93882155  0.75000000  1
  O  O2159  1  0.89925869  0.93882155  0.91666667  1
  O  O2160  1  0.14895190  0.13749256  0.03862025  1
  O  O2161  1  0.14895190  0.13749256  0.20528692  1
  O  O2162  1  0.14895190  0.13749256  0.37195358  1
  O  O2163  1  0.14895190  0.13749256  0.53862025  1
  O  O2164  1  0.14895190  0.13749256  0.70528692  1
  O  O2165  1  0.14895190  0.13749256  0.87195358  1
  O  O2166  1  0.14895190  0.30415922  0.03862025  1
  O  O2167  1  0.14895190  0.30415922  0.20528692  1
  O  O2168  1  0.14895190  0.30415922  0.37195358  1
  O  O2169  1  0.14895190  0.30415922  0.53862025  1
  O  O2170  1  0.14895190  0.30415922  0.70528692  1
  O  O2171  1  0.14895190  0.30415922  0.87195358  1
  O  O2172  1  0.14895190  0.47082589  0.03862025  1
  O  O2173  1  0.14895190  0.47082589  0.20528692  1
  O  O2174  1  0.14895190  0.47082589  0.37195358  1
  O  O2175  1  0.14895190  0.47082589  0.53862025  1
  O  O2176  1  0.14895190  0.47082589  0.70528692  1
  O  O2177  1  0.14895190  0.47082589  0.87195358  1
  O  O2178  1  0.14895190  0.63749256  0.03862025  1
  O  O2179  1  0.14895190  0.63749256  0.20528692  1
  O  O2180  1  0.14895190  0.63749256  0.37195358  1
  O  O2181  1  0.14895190  0.63749256  0.53862025  1
  O  O2182  1  0.14895190  0.63749256  0.70528692  1
  O  O2183  1  0.14895190  0.63749256  0.87195358  1
  O  O2184  1  0.14895190  0.80415922  0.03862025  1
  O  O2185  1  0.14895190  0.80415922  0.20528692  1
  O  O2186  1  0.14895190  0.80415922  0.37195358  1
  O  O2187  1  0.14895190  0.80415922  0.53862025  1
  O  O2188  1  0.14895190  0.80415922  0.70528692  1
  O  O2189  1  0.14895190  0.80415922  0.87195358  1
  O  O2190  1  0.14895190  0.97082589  0.03862025  1
  O  O2191  1  0.14895190  0.97082589  0.20528692  1
  O  O2192  1  0.14895190  0.97082589  0.37195358  1
  O  O2193  1  0.14895190  0.97082589  0.53862025  1
  O  O2194  1  0.14895190  0.97082589  0.70528692  1
  O  O2195  1  0.14895190  0.97082589  0.87195358  1
  O  O2196  1  0.31561856  0.13749256  0.03862025  1
  O  O2197  1  0.31561856  0.13749256  0.20528692  1
  O  O2198  1  0.31561856  0.13749256  0.37195358  1
  O  O2199  1  0.31561856  0.13749256  0.53862025  1
  O  O2200  1  0.31561856  0.13749256  0.70528692  1
  O  O2201  1  0.31561856  0.13749256  0.87195358  1
  O  O2202  1  0.31561856  0.30415922  0.03862025  1
  O  O2203  1  0.31561856  0.30415922  0.20528692  1
  O  O2204  1  0.31561856  0.30415922  0.37195358  1
  O  O2205  1  0.31561856  0.30415922  0.53862025  1
  O  O2206  1  0.31561856  0.30415922  0.70528692  1
  O  O2207  1  0.31561856  0.30415922  0.87195358  1
  O  O2208  1  0.31561856  0.47082589  0.03862025  1
  O  O2209  1  0.31561856  0.47082589  0.20528692  1
  O  O2210  1  0.31561856  0.47082589  0.37195358  1
  O  O2211  1  0.31561856  0.47082589  0.53862025  1
  O  O2212  1  0.31561856  0.47082589  0.70528692  1
  O  O2213  1  0.31561856  0.47082589  0.87195358  1
  O  O2214  1  0.31561856  0.63749256  0.03862025  1
  O  O2215  1  0.31561856  0.63749256  0.20528692  1
  O  O2216  1  0.31561856  0.63749256  0.37195358  1
  O  O2217  1  0.31561856  0.63749256  0.53862025  1
  O  O2218  1  0.31561856  0.63749256  0.70528692  1
  O  O2219  1  0.31561856  0.63749256  0.87195358  1
  O  O2220  1  0.31561856  0.80415922  0.03862025  1
  O  O2221  1  0.31561856  0.80415922  0.20528692  1
  O  O2222  1  0.31561856  0.80415922  0.37195358  1
  O  O2223  1  0.31561856  0.80415922  0.53862025  1
  O  O2224  1  0.31561856  0.80415922  0.70528692  1
  O  O2225  1  0.31561856  0.80415922  0.87195358  1
  O  O2226  1  0.31561856  0.97082589  0.03862025  1
  O  O2227  1  0.31561856  0.97082589  0.20528692  1
  O  O2228  1  0.31561856  0.97082589  0.37195358  1
  O  O2229  1  0.31561856  0.97082589  0.53862025  1
  O  O2230  1  0.31561856  0.97082589  0.70528692  1
  O  O2231  1  0.31561856  0.97082589  0.87195358  1
  O  O2232  1  0.48228523  0.13749256  0.03862025  1
  O  O2233  1  0.48228523  0.13749256  0.20528692  1
  O  O2234  1  0.48228523  0.13749256  0.37195358  1
  O  O2235  1  0.48228523  0.13749256  0.53862025  1
  O  O2236  1  0.48228523  0.13749256  0.70528692  1
  O  O2237  1  0.48228523  0.13749256  0.87195358  1
  O  O2238  1  0.48228523  0.30415922  0.03862025  1
  O  O2239  1  0.48228523  0.30415922  0.20528692  1
  O  O2240  1  0.48228523  0.30415922  0.37195358  1
  O  O2241  1  0.48228523  0.30415922  0.53862025  1
  O  O2242  1  0.48228523  0.30415922  0.70528692  1
  O  O2243  1  0.48228523  0.30415922  0.87195358  1
  O  O2244  1  0.48228523  0.47082589  0.03862025  1
  O  O2245  1  0.48228523  0.47082589  0.20528692  1
  O  O2246  1  0.48228523  0.47082589  0.37195358  1
  O  O2247  1  0.48228523  0.47082589  0.53862025  1
  O  O2248  1  0.48228523  0.47082589  0.70528692  1
  O  O2249  1  0.48228523  0.47082589  0.87195358  1
  O  O2250  1  0.48228523  0.63749256  0.03862025  1
  O  O2251  1  0.48228523  0.63749256  0.20528692  1
  O  O2252  1  0.48228523  0.63749256  0.37195358  1
  O  O2253  1  0.48228523  0.63749256  0.53862025  1
  O  O2254  1  0.48228523  0.63749256  0.70528692  1
  O  O2255  1  0.48228523  0.63749256  0.87195358  1
  O  O2256  1  0.48228523  0.80415922  0.03862025  1
  O  O2257  1  0.48228523  0.80415922  0.20528692  1
  O  O2258  1  0.48228523  0.80415922  0.37195358  1
  O  O2259  1  0.48228523  0.80415922  0.53862025  1
  O  O2260  1  0.48228523  0.80415922  0.70528692  1
  O  O2261  1  0.48228523  0.80415922  0.87195358  1
  O  O2262  1  0.48228523  0.97082589  0.03862025  1
  O  O2263  1  0.48228523  0.97082589  0.20528692  1
  O  O2264  1  0.48228523  0.97082589  0.37195358  1
  O  O2265  1  0.48228523  0.97082589  0.53862025  1
  O  O2266  1  0.48228523  0.97082589  0.70528692  1
  O  O2267  1  0.48228523  0.97082589  0.87195358  1
  O  O2268  1  0.64895190  0.13749256  0.03862025  1
  O  O2269  1  0.64895190  0.13749256  0.20528692  1
  O  O2270  1  0.64895190  0.13749256  0.37195358  1
  O  O2271  1  0.64895190  0.13749256  0.53862025  1
  O  O2272  1  0.64895190  0.13749256  0.70528692  1
  O  O2273  1  0.64895190  0.13749256  0.87195358  1
  O  O2274  1  0.64895190  0.30415922  0.03862025  1
  O  O2275  1  0.64895190  0.30415922  0.20528692  1
  O  O2276  1  0.64895190  0.30415922  0.37195358  1
  O  O2277  1  0.64895190  0.30415922  0.53862025  1
  O  O2278  1  0.64895190  0.30415922  0.70528692  1
  O  O2279  1  0.64895190  0.30415922  0.87195358  1
  O  O2280  1  0.64895190  0.47082589  0.03862025  1
  O  O2281  1  0.64895190  0.47082589  0.20528692  1
  O  O2282  1  0.64895190  0.47082589  0.37195358  1
  O  O2283  1  0.64895190  0.47082589  0.53862025  1
  O  O2284  1  0.64895190  0.47082589  0.70528692  1
  O  O2285  1  0.64895190  0.47082589  0.87195358  1
  O  O2286  1  0.64895190  0.63749256  0.03862025  1
  O  O2287  1  0.64895190  0.63749256  0.20528692  1
  O  O2288  1  0.64895190  0.63749256  0.37195358  1
  O  O2289  1  0.64895190  0.63749256  0.53862025  1
  O  O2290  1  0.64895190  0.63749256  0.70528692  1
  O  O2291  1  0.64895190  0.63749256  0.87195358  1
  O  O2292  1  0.64895190  0.80415922  0.03862025  1
  O  O2293  1  0.64895190  0.80415922  0.20528692  1
  O  O2294  1  0.64895190  0.80415922  0.37195358  1
  O  O2295  1  0.64895190  0.80415922  0.53862025  1
  O  O2296  1  0.64895190  0.80415922  0.70528692  1
  O  O2297  1  0.64895190  0.80415922  0.87195358  1
  O  O2298  1  0.64895190  0.97082589  0.03862025  1
  O  O2299  1  0.64895190  0.97082589  0.20528692  1
  O  O2300  1  0.64895190  0.97082589  0.37195358  1
  O  O2301  1  0.64895190  0.97082589  0.53862025  1
  O  O2302  1  0.64895190  0.97082589  0.70528692  1
  O  O2303  1  0.64895190  0.97082589  0.87195358  1
  O  O2304  1  0.81561856  0.13749256  0.03862025  1
  O  O2305  1  0.81561856  0.13749256  0.20528692  1
  O  O2306  1  0.81561856  0.13749256  0.37195358  1
  O  O2307  1  0.81561856  0.13749256  0.53862025  1
  O  O2308  1  0.81561856  0.13749256  0.70528692  1
  O  O2309  1  0.81561856  0.13749256  0.87195358  1
  O  O2310  1  0.81561856  0.30415922  0.03862025  1
  O  O2311  1  0.81561856  0.30415922  0.20528692  1
  O  O2312  1  0.81561856  0.30415922  0.37195358  1
  O  O2313  1  0.81561856  0.30415922  0.53862025  1
  O  O2314  1  0.81561856  0.30415922  0.70528692  1
  O  O2315  1  0.81561856  0.30415922  0.87195358  1
  O  O2316  1  0.81561856  0.47082589  0.03862025  1
  O  O2317  1  0.81561856  0.47082589  0.20528692  1
  O  O2318  1  0.81561856  0.47082589  0.37195358  1
  O  O2319  1  0.81561856  0.47082589  0.53862025  1
  O  O2320  1  0.81561856  0.47082589  0.70528692  1
  O  O2321  1  0.81561856  0.47082589  0.87195358  1
  O  O2322  1  0.81561856  0.63749256  0.03862025  1
  O  O2323  1  0.81561856  0.63749256  0.20528692  1
  O  O2324  1  0.81561856  0.63749256  0.37195358  1
  O  O2325  1  0.81561856  0.63749256  0.53862025  1
  O  O2326  1  0.81561856  0.63749256  0.70528692  1
  O  O2327  1  0.81561856  0.63749256  0.87195358  1
  O  O2328  1  0.81561856  0.80415922  0.03862025  1
  O  O2329  1  0.81561856  0.80415922  0.20528692  1
  O  O2330  1  0.81561856  0.80415922  0.37195358  1
  O  O2331  1  0.81561856  0.80415922  0.53862025  1
  O  O2332  1  0.81561856  0.80415922  0.70528692  1
  O  O2333  1  0.81561856  0.80415922  0.87195358  1
  O  O2334  1  0.81561856  0.97082589  0.03862025  1
  O  O2335  1  0.81561856  0.97082589  0.20528692  1
  O  O2336  1  0.81561856  0.97082589  0.37195358  1
  O  O2337  1  0.81561856  0.97082589  0.53862025  1
  O  O2338  1  0.81561856  0.97082589  0.70528692  1
  O  O2339  1  0.81561856  0.97082589  0.87195358  1
  O  O2340  1  0.98228523  0.13749256  0.03862025  1
  O  O2341  1  0.98228523  0.13749256  0.20528692  1
  O  O2342  1  0.98228523  0.13749256  0.37195358  1
  O  O2343  1  0.98228523  0.13749256  0.53862025  1
  O  O2344  1  0.98228523  0.13749256  0.70528692  1
  O  O2345  1  0.98228523  0.13749256  0.87195358  1
  O  O2346  1  0.98228523  0.30415922  0.03862025  1
  O  O2347  1  0.98228523  0.30415922  0.20528692  1
  O  O2348  1  0.98228523  0.30415922  0.37195358  1
  O  O2349  1  0.98228523  0.30415922  0.53862025  1
  O  O2350  1  0.98228523  0.30415922  0.70528692  1
  O  O2351  1  0.98228523  0.30415922  0.87195358  1
  O  O2352  1  0.98228523  0.47082589  0.03862025  1
  O  O2353  1  0.98228523  0.47082589  0.20528692  1
  O  O2354  1  0.98228523  0.47082589  0.37195358  1
  O  O2355  1  0.98228523  0.47082589  0.53862025  1
  O  O2356  1  0.98228523  0.47082589  0.70528692  1
  O  O2357  1  0.98228523  0.47082589  0.87195358  1
  O  O2358  1  0.98228523  0.63749256  0.03862025  1
  O  O2359  1  0.98228523  0.63749256  0.20528692  1
  O  O2360  1  0.98228523  0.63749256  0.37195358  1
  O  O2361  1  0.98228523  0.63749256  0.53862025  1
  O  O2362  1  0.98228523  0.63749256  0.70528692  1
  O  O2363  1  0.98228523  0.63749256  0.87195358  1
  O  O2364  1  0.98228523  0.80415922  0.03862025  1
  O  O2365  1  0.98228523  0.80415922  0.20528692  1
  O  O2366  1  0.98228523  0.80415922  0.37195358  1
  O  O2367  1  0.98228523  0.80415922  0.53862025  1
  O  O2368  1  0.98228523  0.80415922  0.70528692  1
  O  O2369  1  0.98228523  0.80415922  0.87195358  1
  O  O2370  1  0.98228523  0.97082589  0.03862025  1
  O  O2371  1  0.98228523  0.97082589  0.20528692  1
  O  O2372  1  0.98228523  0.97082589  0.37195358  1
  O  O2373  1  0.98228523  0.97082589  0.53862025  1
  O  O2374  1  0.98228523  0.97082589  0.70528692  1
  O  O2375  1  0.98228523  0.97082589  0.87195358  1
  O  O2376  1  0.06561856  0.02917411  0.04471308  1
  O  O2377  1  0.06561856  0.02917411  0.21137975  1
  O  O2378  1  0.06561856  0.02917411  0.37804642  1
  O  O2379  1  0.06561856  0.02917411  0.54471308  1
  O  O2380  1  0.06561856  0.02917411  0.71137975  1
  O  O2381  1  0.06561856  0.02917411  0.87804642  1
  O  O2382  1  0.06561856  0.19584078  0.04471308  1
  O  O2383  1  0.06561856  0.19584078  0.21137975  1
  O  O2384  1  0.06561856  0.19584078  0.37804642  1
  O  O2385  1  0.06561856  0.19584078  0.54471308  1
  O  O2386  1  0.06561856  0.19584078  0.71137975  1
  O  O2387  1  0.06561856  0.19584078  0.87804642  1
  O  O2388  1  0.06561856  0.36250744  0.04471308  1
  O  O2389  1  0.06561856  0.36250744  0.21137975  1
  O  O2390  1  0.06561856  0.36250744  0.37804642  1
  O  O2391  1  0.06561856  0.36250744  0.54471308  1
  O  O2392  1  0.06561856  0.36250744  0.71137975  1
  O  O2393  1  0.06561856  0.36250744  0.87804642  1
  O  O2394  1  0.06561856  0.52917411  0.04471308  1
  O  O2395  1  0.06561856  0.52917411  0.21137975  1
  O  O2396  1  0.06561856  0.52917411  0.37804642  1
  O  O2397  1  0.06561856  0.52917411  0.54471308  1
  O  O2398  1  0.06561856  0.52917411  0.71137975  1
  O  O2399  1  0.06561856  0.52917411  0.87804642  1
  O  O2400  1  0.06561856  0.69584078  0.04471308  1
  O  O2401  1  0.06561856  0.69584078  0.21137975  1
  O  O2402  1  0.06561856  0.69584078  0.37804642  1
  O  O2403  1  0.06561856  0.69584078  0.54471308  1
  O  O2404  1  0.06561856  0.69584078  0.71137975  1
  O  O2405  1  0.06561856  0.69584078  0.87804642  1
  O  O2406  1  0.06561856  0.86250744  0.04471308  1
  O  O2407  1  0.06561856  0.86250744  0.21137975  1
  O  O2408  1  0.06561856  0.86250744  0.37804642  1
  O  O2409  1  0.06561856  0.86250744  0.54471308  1
  O  O2410  1  0.06561856  0.86250744  0.71137975  1
  O  O2411  1  0.06561856  0.86250744  0.87804642  1
  O  O2412  1  0.23228523  0.02917411  0.04471308  1
  O  O2413  1  0.23228523  0.02917411  0.21137975  1
  O  O2414  1  0.23228523  0.02917411  0.37804642  1
  O  O2415  1  0.23228523  0.02917411  0.54471308  1
  O  O2416  1  0.23228523  0.02917411  0.71137975  1
  O  O2417  1  0.23228523  0.02917411  0.87804642  1
  O  O2418  1  0.23228523  0.19584078  0.04471308  1
  O  O2419  1  0.23228523  0.19584078  0.21137975  1
  O  O2420  1  0.23228523  0.19584078  0.37804642  1
  O  O2421  1  0.23228523  0.19584078  0.54471308  1
  O  O2422  1  0.23228523  0.19584078  0.71137975  1
  O  O2423  1  0.23228523  0.19584078  0.87804642  1
  O  O2424  1  0.23228523  0.36250744  0.04471308  1
  O  O2425  1  0.23228523  0.36250744  0.21137975  1
  O  O2426  1  0.23228523  0.36250744  0.37804642  1
  O  O2427  1  0.23228523  0.36250744  0.54471308  1
  O  O2428  1  0.23228523  0.36250744  0.71137975  1
  O  O2429  1  0.23228523  0.36250744  0.87804642  1
  O  O2430  1  0.23228523  0.52917411  0.04471308  1
  O  O2431  1  0.23228523  0.52917411  0.21137975  1
  O  O2432  1  0.23228523  0.52917411  0.37804642  1
  O  O2433  1  0.23228523  0.52917411  0.54471308  1
  O  O2434  1  0.23228523  0.52917411  0.71137975  1
  O  O2435  1  0.23228523  0.52917411  0.87804642  1
  O  O2436  1  0.23228523  0.69584078  0.04471308  1
  O  O2437  1  0.23228523  0.69584078  0.21137975  1
  O  O2438  1  0.23228523  0.69584078  0.37804642  1
  O  O2439  1  0.23228523  0.69584078  0.54471308  1
  O  O2440  1  0.23228523  0.69584078  0.71137975  1
  O  O2441  1  0.23228523  0.69584078  0.87804642  1
  O  O2442  1  0.23228523  0.86250744  0.04471308  1
  O  O2443  1  0.23228523  0.86250744  0.21137975  1
  O  O2444  1  0.23228523  0.86250744  0.37804642  1
  O  O2445  1  0.23228523  0.86250744  0.54471308  1
  O  O2446  1  0.23228523  0.86250744  0.71137975  1
  O  O2447  1  0.23228523  0.86250744  0.87804642  1
  O  O2448  1  0.39895190  0.02917411  0.04471308  1
  O  O2449  1  0.39895190  0.02917411  0.21137975  1
  O  O2450  1  0.39895190  0.02917411  0.37804642  1
  O  O2451  1  0.39895190  0.02917411  0.54471308  1
  O  O2452  1  0.39895190  0.02917411  0.71137975  1
  O  O2453  1  0.39895190  0.02917411  0.87804642  1
  O  O2454  1  0.39895190  0.19584078  0.04471308  1
  O  O2455  1  0.39895190  0.19584078  0.21137975  1
  O  O2456  1  0.39895190  0.19584078  0.37804642  1
  O  O2457  1  0.39895190  0.19584078  0.54471308  1
  O  O2458  1  0.39895190  0.19584078  0.71137975  1
  O  O2459  1  0.39895190  0.19584078  0.87804642  1
  O  O2460  1  0.39895190  0.36250744  0.04471308  1
  O  O2461  1  0.39895190  0.36250744  0.21137975  1
  O  O2462  1  0.39895190  0.36250744  0.37804642  1
  O  O2463  1  0.39895190  0.36250744  0.54471308  1
  O  O2464  1  0.39895190  0.36250744  0.71137975  1
  O  O2465  1  0.39895190  0.36250744  0.87804642  1
  O  O2466  1  0.39895190  0.52917411  0.04471308  1
  O  O2467  1  0.39895190  0.52917411  0.21137975  1
  O  O2468  1  0.39895190  0.52917411  0.37804642  1
  O  O2469  1  0.39895190  0.52917411  0.54471308  1
  O  O2470  1  0.39895190  0.52917411  0.71137975  1
  O  O2471  1  0.39895190  0.52917411  0.87804642  1
  O  O2472  1  0.39895190  0.69584078  0.04471308  1
  O  O2473  1  0.39895190  0.69584078  0.21137975  1
  O  O2474  1  0.39895190  0.69584078  0.37804642  1
  O  O2475  1  0.39895190  0.69584078  0.54471308  1
  O  O2476  1  0.39895190  0.69584078  0.71137975  1
  O  O2477  1  0.39895190  0.69584078  0.87804642  1
  O  O2478  1  0.39895190  0.86250744  0.04471308  1
  O  O2479  1  0.39895190  0.86250744  0.21137975  1
  O  O2480  1  0.39895190  0.86250744  0.37804642  1
  O  O2481  1  0.39895190  0.86250744  0.54471308  1
  O  O2482  1  0.39895190  0.86250744  0.71137975  1
  O  O2483  1  0.39895190  0.86250744  0.87804642  1
  O  O2484  1  0.56561856  0.02917411  0.04471308  1
  O  O2485  1  0.56561856  0.02917411  0.21137975  1
  O  O2486  1  0.56561856  0.02917411  0.37804642  1
  O  O2487  1  0.56561856  0.02917411  0.54471308  1
  O  O2488  1  0.56561856  0.02917411  0.71137975  1
  O  O2489  1  0.56561856  0.02917411  0.87804642  1
  O  O2490  1  0.56561856  0.19584078  0.04471308  1
  O  O2491  1  0.56561856  0.19584078  0.21137975  1
  O  O2492  1  0.56561856  0.19584078  0.37804642  1
  O  O2493  1  0.56561856  0.19584078  0.54471308  1
  O  O2494  1  0.56561856  0.19584078  0.71137975  1
  O  O2495  1  0.56561856  0.19584078  0.87804642  1
  O  O2496  1  0.56561856  0.36250744  0.04471308  1
  O  O2497  1  0.56561856  0.36250744  0.21137975  1
  O  O2498  1  0.56561856  0.36250744  0.37804642  1
  O  O2499  1  0.56561856  0.36250744  0.54471308  1
  O  O2500  1  0.56561856  0.36250744  0.71137975  1
  O  O2501  1  0.56561856  0.36250744  0.87804642  1
  O  O2502  1  0.56561856  0.52917411  0.04471308  1
  O  O2503  1  0.56561856  0.52917411  0.21137975  1
  O  O2504  1  0.56561856  0.52917411  0.37804642  1
  O  O2505  1  0.56561856  0.52917411  0.54471308  1
  O  O2506  1  0.56561856  0.52917411  0.71137975  1
  O  O2507  1  0.56561856  0.52917411  0.87804642  1
  O  O2508  1  0.56561856  0.69584078  0.04471308  1
  O  O2509  1  0.56561856  0.69584078  0.21137975  1
  O  O2510  1  0.56561856  0.69584078  0.37804642  1
  O  O2511  1  0.56561856  0.69584078  0.54471308  1
  O  O2512  1  0.56561856  0.69584078  0.71137975  1
  O  O2513  1  0.56561856  0.69584078  0.87804642  1
  O  O2514  1  0.56561856  0.86250744  0.04471308  1
  O  O2515  1  0.56561856  0.86250744  0.21137975  1
  O  O2516  1  0.56561856  0.86250744  0.37804642  1
  O  O2517  1  0.56561856  0.86250744  0.54471308  1
  O  O2518  1  0.56561856  0.86250744  0.71137975  1
  O  O2519  1  0.56561856  0.86250744  0.87804642  1
  O  O2520  1  0.73228523  0.02917411  0.04471308  1
  O  O2521  1  0.73228523  0.02917411  0.21137975  1
  O  O2522  1  0.73228523  0.02917411  0.37804642  1
  O  O2523  1  0.73228523  0.02917411  0.54471308  1
  O  O2524  1  0.73228523  0.02917411  0.71137975  1
  O  O2525  1  0.73228523  0.02917411  0.87804642  1
  O  O2526  1  0.73228523  0.19584078  0.04471308  1
  O  O2527  1  0.73228523  0.19584078  0.21137975  1
  O  O2528  1  0.73228523  0.19584078  0.37804642  1
  O  O2529  1  0.73228523  0.19584078  0.54471308  1
  O  O2530  1  0.73228523  0.19584078  0.71137975  1
  O  O2531  1  0.73228523  0.19584078  0.87804642  1
  O  O2532  1  0.73228523  0.36250744  0.04471308  1
  O  O2533  1  0.73228523  0.36250744  0.21137975  1
  O  O2534  1  0.73228523  0.36250744  0.37804642  1
  O  O2535  1  0.73228523  0.36250744  0.54471308  1
  O  O2536  1  0.73228523  0.36250744  0.71137975  1
  O  O2537  1  0.73228523  0.36250744  0.87804642  1
  O  O2538  1  0.73228523  0.52917411  0.04471308  1
  O  O2539  1  0.73228523  0.52917411  0.21137975  1
  O  O2540  1  0.73228523  0.52917411  0.37804642  1
  O  O2541  1  0.73228523  0.52917411  0.54471308  1
  O  O2542  1  0.73228523  0.52917411  0.71137975  1
  O  O2543  1  0.73228523  0.52917411  0.87804642  1
  O  O2544  1  0.73228523  0.69584078  0.04471308  1
  O  O2545  1  0.73228523  0.69584078  0.21137975  1
  O  O2546  1  0.73228523  0.69584078  0.37804642  1
  O  O2547  1  0.73228523  0.69584078  0.54471308  1
  O  O2548  1  0.73228523  0.69584078  0.71137975  1
  O  O2549  1  0.73228523  0.69584078  0.87804642  1
  O  O2550  1  0.73228523  0.86250744  0.04471308  1
  O  O2551  1  0.73228523  0.86250744  0.21137975  1
  O  O2552  1  0.73228523  0.86250744  0.37804642  1
  O  O2553  1  0.73228523  0.86250744  0.54471308  1
  O  O2554  1  0.73228523  0.86250744  0.71137975  1
  O  O2555  1  0.73228523  0.86250744  0.87804642  1
  O  O2556  1  0.89895190  0.02917411  0.04471308  1
  O  O2557  1  0.89895190  0.02917411  0.21137975  1
  O  O2558  1  0.89895190  0.02917411  0.37804642  1
  O  O2559  1  0.89895190  0.02917411  0.54471308  1
  O  O2560  1  0.89895190  0.02917411  0.71137975  1
  O  O2561  1  0.89895190  0.02917411  0.87804642  1
  O  O2562  1  0.89895190  0.19584078  0.04471308  1
  O  O2563  1  0.89895190  0.19584078  0.21137975  1
  O  O2564  1  0.89895190  0.19584078  0.37804642  1
  O  O2565  1  0.89895190  0.19584078  0.54471308  1
  O  O2566  1  0.89895190  0.19584078  0.71137975  1
  O  O2567  1  0.89895190  0.19584078  0.87804642  1
  O  O2568  1  0.89895190  0.36250744  0.04471308  1
  O  O2569  1  0.89895190  0.36250744  0.21137975  1
  O  O2570  1  0.89895190  0.36250744  0.37804642  1
  O  O2571  1  0.89895190  0.36250744  0.54471308  1
  O  O2572  1  0.89895190  0.36250744  0.71137975  1
  O  O2573  1  0.89895190  0.36250744  0.87804642  1
  O  O2574  1  0.89895190  0.52917411  0.04471308  1
  O  O2575  1  0.89895190  0.52917411  0.21137975  1
  O  O2576  1  0.89895190  0.52917411  0.37804642  1
  O  O2577  1  0.89895190  0.52917411  0.54471308  1
  O  O2578  1  0.89895190  0.52917411  0.71137975  1
  O  O2579  1  0.89895190  0.52917411  0.87804642  1
  O  O2580  1  0.89895190  0.69584078  0.04471308  1
  O  O2581  1  0.89895190  0.69584078  0.21137975  1
  O  O2582  1  0.89895190  0.69584078  0.37804642  1
  O  O2583  1  0.89895190  0.69584078  0.54471308  1
  O  O2584  1  0.89895190  0.69584078  0.71137975  1
  O  O2585  1  0.89895190  0.69584078  0.87804642  1
  O  O2586  1  0.89895190  0.86250744  0.04471308  1
  O  O2587  1  0.89895190  0.86250744  0.21137975  1
  O  O2588  1  0.89895190  0.86250744  0.37804642  1
  O  O2589  1  0.89895190  0.86250744  0.54471308  1
  O  O2590  1  0.89895190  0.86250744  0.71137975  1
  O  O2591  1  0.89895190  0.86250744  0.87804642  1
  O  O2592  1  0.06561856  0.02917411  0.12195358  1
  O  O2593  1  0.06561856  0.02917411  0.28862025  1
  O  O2594  1  0.06561856  0.02917411  0.45528692  1
  O  O2595  1  0.06561856  0.02917411  0.62195358  1
  O  O2596  1  0.06561856  0.02917411  0.78862025  1
  O  O2597  1  0.06561856  0.02917411  0.95528692  1
  O  O2598  1  0.06561856  0.19584078  0.12195358  1
  O  O2599  1  0.06561856  0.19584078  0.28862025  1
  O  O2600  1  0.06561856  0.19584078  0.45528692  1
  O  O2601  1  0.06561856  0.19584078  0.62195358  1
  O  O2602  1  0.06561856  0.19584078  0.78862025  1
  O  O2603  1  0.06561856  0.19584078  0.95528692  1
  O  O2604  1  0.06561856  0.36250744  0.12195358  1
  O  O2605  1  0.06561856  0.36250744  0.28862025  1
  O  O2606  1  0.06561856  0.36250744  0.45528692  1
  O  O2607  1  0.06561856  0.36250744  0.62195358  1
  O  O2608  1  0.06561856  0.36250744  0.78862025  1
  O  O2609  1  0.06561856  0.36250744  0.95528692  1
  O  O2610  1  0.06561856  0.52917411  0.12195358  1
  O  O2611  1  0.06561856  0.52917411  0.28862025  1
  O  O2612  1  0.06561856  0.52917411  0.45528692  1
  O  O2613  1  0.06561856  0.52917411  0.62195358  1
  O  O2614  1  0.06561856  0.52917411  0.78862025  1
  O  O2615  1  0.06561856  0.52917411  0.95528692  1
  O  O2616  1  0.06561856  0.69584078  0.12195358  1
  O  O2617  1  0.06561856  0.69584078  0.28862025  1
  O  O2618  1  0.06561856  0.69584078  0.45528692  1
  O  O2619  1  0.06561856  0.69584078  0.62195358  1
  O  O2620  1  0.06561856  0.69584078  0.78862025  1
  O  O2621  1  0.06561856  0.69584078  0.95528692  1
  O  O2622  1  0.06561856  0.86250744  0.12195358  1
  O  O2623  1  0.06561856  0.86250744  0.28862025  1
  O  O2624  1  0.06561856  0.86250744  0.45528692  1
  O  O2625  1  0.06561856  0.86250744  0.62195358  1
  O  O2626  1  0.06561856  0.86250744  0.78862025  1
  O  O2627  1  0.06561856  0.86250744  0.95528692  1
  O  O2628  1  0.23228523  0.02917411  0.12195358  1
  O  O2629  1  0.23228523  0.02917411  0.28862025  1
  O  O2630  1  0.23228523  0.02917411  0.45528692  1
  O  O2631  1  0.23228523  0.02917411  0.62195358  1
  O  O2632  1  0.23228523  0.02917411  0.78862025  1
  O  O2633  1  0.23228523  0.02917411  0.95528692  1
  O  O2634  1  0.23228523  0.19584078  0.12195358  1
  O  O2635  1  0.23228523  0.19584078  0.28862025  1
  O  O2636  1  0.23228523  0.19584078  0.45528692  1
  O  O2637  1  0.23228523  0.19584078  0.62195358  1
  O  O2638  1  0.23228523  0.19584078  0.78862025  1
  O  O2639  1  0.23228523  0.19584078  0.95528692  1
  O  O2640  1  0.23228523  0.36250744  0.12195358  1
  O  O2641  1  0.23228523  0.36250744  0.28862025  1
  O  O2642  1  0.23228523  0.36250744  0.45528692  1
  O  O2643  1  0.23228523  0.36250744  0.62195358  1
  O  O2644  1  0.23228523  0.36250744  0.78862025  1
  O  O2645  1  0.23228523  0.36250744  0.95528692  1
  O  O2646  1  0.23228523  0.52917411  0.12195358  1
  O  O2647  1  0.23228523  0.52917411  0.28862025  1
  O  O2648  1  0.23228523  0.52917411  0.45528692  1
  O  O2649  1  0.23228523  0.52917411  0.62195358  1
  O  O2650  1  0.23228523  0.52917411  0.78862025  1
  O  O2651  1  0.23228523  0.52917411  0.95528692  1
  O  O2652  1  0.23228523  0.69584078  0.12195358  1
  O  O2653  1  0.23228523  0.69584078  0.28862025  1
  O  O2654  1  0.23228523  0.69584078  0.45528692  1
  O  O2655  1  0.23228523  0.69584078  0.62195358  1
  O  O2656  1  0.23228523  0.69584078  0.78862025  1
  O  O2657  1  0.23228523  0.69584078  0.95528692  1
  O  O2658  1  0.23228523  0.86250744  0.12195358  1
  O  O2659  1  0.23228523  0.86250744  0.28862025  1
  O  O2660  1  0.23228523  0.86250744  0.45528692  1
  O  O2661  1  0.23228523  0.86250744  0.62195358  1
  O  O2662  1  0.23228523  0.86250744  0.78862025  1
  O  O2663  1  0.23228523  0.86250744  0.95528692  1
  O  O2664  1  0.39895190  0.02917411  0.12195358  1
  O  O2665  1  0.39895190  0.02917411  0.28862025  1
  O  O2666  1  0.39895190  0.02917411  0.45528692  1
  O  O2667  1  0.39895190  0.02917411  0.62195358  1
  O  O2668  1  0.39895190  0.02917411  0.78862025  1
  O  O2669  1  0.39895190  0.02917411  0.95528692  1
  O  O2670  1  0.39895190  0.19584078  0.12195358  1
  O  O2671  1  0.39895190  0.19584078  0.28862025  1
  O  O2672  1  0.39895190  0.19584078  0.45528692  1
  O  O2673  1  0.39895190  0.19584078  0.62195358  1
  O  O2674  1  0.39895190  0.19584078  0.78862025  1
  O  O2675  1  0.39895190  0.19584078  0.95528692  1
  O  O2676  1  0.39895190  0.36250744  0.12195358  1
  O  O2677  1  0.39895190  0.36250744  0.28862025  1
  O  O2678  1  0.39895190  0.36250744  0.45528692  1
  O  O2679  1  0.39895190  0.36250744  0.62195358  1
  O  O2680  1  0.39895190  0.36250744  0.78862025  1
  O  O2681  1  0.39895190  0.36250744  0.95528692  1
  O  O2682  1  0.39895190  0.52917411  0.12195358  1
  O  O2683  1  0.39895190  0.52917411  0.28862025  1
  O  O2684  1  0.39895190  0.52917411  0.45528692  1
  O  O2685  1  0.39895190  0.52917411  0.62195358  1
  O  O2686  1  0.39895190  0.52917411  0.78862025  1
  O  O2687  1  0.39895190  0.52917411  0.95528692  1
  O  O2688  1  0.39895190  0.69584078  0.12195358  1
  O  O2689  1  0.39895190  0.69584078  0.28862025  1
  O  O2690  1  0.39895190  0.69584078  0.45528692  1
  O  O2691  1  0.39895190  0.69584078  0.62195358  1
  O  O2692  1  0.39895190  0.69584078  0.78862025  1
  O  O2693  1  0.39895190  0.69584078  0.95528692  1
  O  O2694  1  0.39895190  0.86250744  0.12195358  1
  O  O2695  1  0.39895190  0.86250744  0.28862025  1
  O  O2696  1  0.39895190  0.86250744  0.45528692  1
  O  O2697  1  0.39895190  0.86250744  0.62195358  1
  O  O2698  1  0.39895190  0.86250744  0.78862025  1
  O  O2699  1  0.39895190  0.86250744  0.95528692  1
  O  O2700  1  0.56561856  0.02917411  0.12195358  1
  O  O2701  1  0.56561856  0.02917411  0.28862025  1
  O  O2702  1  0.56561856  0.02917411  0.45528692  1
  O  O2703  1  0.56561856  0.02917411  0.62195358  1
  O  O2704  1  0.56561856  0.02917411  0.78862025  1
  O  O2705  1  0.56561856  0.02917411  0.95528692  1
  O  O2706  1  0.56561856  0.19584078  0.12195358  1
  O  O2707  1  0.56561856  0.19584078  0.28862025  1
  O  O2708  1  0.56561856  0.19584078  0.45528692  1
  O  O2709  1  0.56561856  0.19584078  0.62195358  1
  O  O2710  1  0.56561856  0.19584078  0.78862025  1
  O  O2711  1  0.56561856  0.19584078  0.95528692  1
  O  O2712  1  0.56561856  0.36250744  0.12195358  1
  O  O2713  1  0.56561856  0.36250744  0.28862025  1
  O  O2714  1  0.56561856  0.36250744  0.45528692  1
  O  O2715  1  0.56561856  0.36250744  0.62195358  1
  O  O2716  1  0.56561856  0.36250744  0.78862025  1
  O  O2717  1  0.56561856  0.36250744  0.95528692  1
  O  O2718  1  0.56561856  0.52917411  0.12195358  1
  O  O2719  1  0.56561856  0.52917411  0.28862025  1
  O  O2720  1  0.56561856  0.52917411  0.45528692  1
  O  O2721  1  0.56561856  0.52917411  0.62195358  1
  O  O2722  1  0.56561856  0.52917411  0.78862025  1
  O  O2723  1  0.56561856  0.52917411  0.95528692  1
  O  O2724  1  0.56561856  0.69584078  0.12195358  1
  O  O2725  1  0.56561856  0.69584078  0.28862025  1
  O  O2726  1  0.56561856  0.69584078  0.45528692  1
  O  O2727  1  0.56561856  0.69584078  0.62195358  1
  O  O2728  1  0.56561856  0.69584078  0.78862025  1
  O  O2729  1  0.56561856  0.69584078  0.95528692  1
  O  O2730  1  0.56561856  0.86250744  0.12195358  1
  O  O2731  1  0.56561856  0.86250744  0.28862025  1
  O  O2732  1  0.56561856  0.86250744  0.45528692  1
  O  O2733  1  0.56561856  0.86250744  0.62195358  1
  O  O2734  1  0.56561856  0.86250744  0.78862025  1
  O  O2735  1  0.56561856  0.86250744  0.95528692  1
  O  O2736  1  0.73228523  0.02917411  0.12195358  1
  O  O2737  1  0.73228523  0.02917411  0.28862025  1
  O  O2738  1  0.73228523  0.02917411  0.45528692  1
  O  O2739  1  0.73228523  0.02917411  0.62195358  1
  O  O2740  1  0.73228523  0.02917411  0.78862025  1
  O  O2741  1  0.73228523  0.02917411  0.95528692  1
  O  O2742  1  0.73228523  0.19584078  0.12195358  1
  O  O2743  1  0.73228523  0.19584078  0.28862025  1
  O  O2744  1  0.73228523  0.19584078  0.45528692  1
  O  O2745  1  0.73228523  0.19584078  0.62195358  1
  O  O2746  1  0.73228523  0.19584078  0.78862025  1
  O  O2747  1  0.73228523  0.19584078  0.95528692  1
  O  O2748  1  0.73228523  0.36250744  0.12195358  1
  O  O2749  1  0.73228523  0.36250744  0.28862025  1
  O  O2750  1  0.73228523  0.36250744  0.45528692  1
  O  O2751  1  0.73228523  0.36250744  0.62195358  1
  O  O2752  1  0.73228523  0.36250744  0.78862025  1
  O  O2753  1  0.73228523  0.36250744  0.95528692  1
  O  O2754  1  0.73228523  0.52917411  0.12195358  1
  O  O2755  1  0.73228523  0.52917411  0.28862025  1
  O  O2756  1  0.73228523  0.52917411  0.45528692  1
  O  O2757  1  0.73228523  0.52917411  0.62195358  1
  O  O2758  1  0.73228523  0.52917411  0.78862025  1
  O  O2759  1  0.73228523  0.52917411  0.95528692  1
  O  O2760  1  0.73228523  0.69584078  0.12195358  1
  O  O2761  1  0.73228523  0.69584078  0.28862025  1
  O  O2762  1  0.73228523  0.69584078  0.45528692  1
  O  O2763  1  0.73228523  0.69584078  0.62195358  1
  O  O2764  1  0.73228523  0.69584078  0.78862025  1
  O  O2765  1  0.73228523  0.69584078  0.95528692  1
  O  O2766  1  0.73228523  0.86250744  0.12195358  1
  O  O2767  1  0.73228523  0.86250744  0.28862025  1
  O  O2768  1  0.73228523  0.86250744  0.45528692  1
  O  O2769  1  0.73228523  0.86250744  0.62195358  1
  O  O2770  1  0.73228523  0.86250744  0.78862025  1
  O  O2771  1  0.73228523  0.86250744  0.95528692  1
  O  O2772  1  0.89895190  0.02917411  0.12195358  1
  O  O2773  1  0.89895190  0.02917411  0.28862025  1
  O  O2774  1  0.89895190  0.02917411  0.45528692  1
  O  O2775  1  0.89895190  0.02917411  0.62195358  1
  O  O2776  1  0.89895190  0.02917411  0.78862025  1
  O  O2777  1  0.89895190  0.02917411  0.95528692  1
  O  O2778  1  0.89895190  0.19584078  0.12195358  1
  O  O2779  1  0.89895190  0.19584078  0.28862025  1
  O  O2780  1  0.89895190  0.19584078  0.45528692  1
  O  O2781  1  0.89895190  0.19584078  0.62195358  1
  O  O2782  1  0.89895190  0.19584078  0.78862025  1
  O  O2783  1  0.89895190  0.19584078  0.95528692  1
  O  O2784  1  0.89895190  0.36250744  0.12195358  1
  O  O2785  1  0.89895190  0.36250744  0.28862025  1
  O  O2786  1  0.89895190  0.36250744  0.45528692  1
  O  O2787  1  0.89895190  0.36250744  0.62195358  1
  O  O2788  1  0.89895190  0.36250744  0.78862025  1
  O  O2789  1  0.89895190  0.36250744  0.95528692  1
  O  O2790  1  0.89895190  0.52917411  0.12195358  1
  O  O2791  1  0.89895190  0.52917411  0.28862025  1
  O  O2792  1  0.89895190  0.52917411  0.45528692  1
  O  O2793  1  0.89895190  0.52917411  0.62195358  1
  O  O2794  1  0.89895190  0.52917411  0.78862025  1
  O  O2795  1  0.89895190  0.52917411  0.95528692  1
  O  O2796  1  0.89895190  0.69584078  0.12195358  1
  O  O2797  1  0.89895190  0.69584078  0.28862025  1
  O  O2798  1  0.89895190  0.69584078  0.45528692  1
  O  O2799  1  0.89895190  0.69584078  0.62195358  1
  O  O2800  1  0.89895190  0.69584078  0.78862025  1
  O  O2801  1  0.89895190  0.69584078  0.95528692  1
  O  O2802  1  0.89895190  0.86250744  0.12195358  1
  O  O2803  1  0.89895190  0.86250744  0.28862025  1
  O  O2804  1  0.89895190  0.86250744  0.45528692  1
  O  O2805  1  0.89895190  0.86250744  0.62195358  1
  O  O2806  1  0.89895190  0.86250744  0.78862025  1
  O  O2807  1  0.89895190  0.86250744  0.95528692  1
  O  O2808  1  0.14895190  0.13749256  0.12804642  1
  O  O2809  1  0.14895190  0.13749256  0.29471308  1
  O  O2810  1  0.14895190  0.13749256  0.46137975  1
  O  O2811  1  0.14895190  0.13749256  0.62804642  1
  O  O2812  1  0.14895190  0.13749256  0.79471308  1
  O  O2813  1  0.14895190  0.13749256  0.96137975  1
  O  O2814  1  0.14895190  0.30415922  0.12804642  1
  O  O2815  1  0.14895190  0.30415922  0.29471308  1
  O  O2816  1  0.14895190  0.30415922  0.46137975  1
  O  O2817  1  0.14895190  0.30415922  0.62804642  1
  O  O2818  1  0.14895190  0.30415922  0.79471308  1
  O  O2819  1  0.14895190  0.30415922  0.96137975  1
  O  O2820  1  0.14895190  0.47082589  0.12804642  1
  O  O2821  1  0.14895190  0.47082589  0.29471308  1
  O  O2822  1  0.14895190  0.47082589  0.46137975  1
  O  O2823  1  0.14895190  0.47082589  0.62804642  1
  O  O2824  1  0.14895190  0.47082589  0.79471308  1
  O  O2825  1  0.14895190  0.47082589  0.96137975  1
  O  O2826  1  0.14895190  0.63749256  0.12804642  1
  O  O2827  1  0.14895190  0.63749256  0.29471308  1
  O  O2828  1  0.14895190  0.63749256  0.46137975  1
  O  O2829  1  0.14895190  0.63749256  0.62804642  1
  O  O2830  1  0.14895190  0.63749256  0.79471308  1
  O  O2831  1  0.14895190  0.63749256  0.96137975  1
  O  O2832  1  0.14895190  0.80415922  0.12804642  1
  O  O2833  1  0.14895190  0.80415922  0.29471308  1
  O  O2834  1  0.14895190  0.80415922  0.46137975  1
  O  O2835  1  0.14895190  0.80415922  0.62804642  1
  O  O2836  1  0.14895190  0.80415922  0.79471308  1
  O  O2837  1  0.14895190  0.80415922  0.96137975  1
  O  O2838  1  0.14895190  0.97082589  0.12804642  1
  O  O2839  1  0.14895190  0.97082589  0.29471308  1
  O  O2840  1  0.14895190  0.97082589  0.46137975  1
  O  O2841  1  0.14895190  0.97082589  0.62804642  1
  O  O2842  1  0.14895190  0.97082589  0.79471308  1
  O  O2843  1  0.14895190  0.97082589  0.96137975  1
  O  O2844  1  0.31561856  0.13749256  0.12804642  1
  O  O2845  1  0.31561856  0.13749256  0.29471308  1
  O  O2846  1  0.31561856  0.13749256  0.46137975  1
  O  O2847  1  0.31561856  0.13749256  0.62804642  1
  O  O2848  1  0.31561856  0.13749256  0.79471308  1
  O  O2849  1  0.31561856  0.13749256  0.96137975  1
  O  O2850  1  0.31561856  0.30415922  0.12804642  1
  O  O2851  1  0.31561856  0.30415922  0.29471308  1
  O  O2852  1  0.31561856  0.30415922  0.46137975  1
  O  O2853  1  0.31561856  0.30415922  0.62804642  1
  O  O2854  1  0.31561856  0.30415922  0.79471308  1
  O  O2855  1  0.31561856  0.30415922  0.96137975  1
  O  O2856  1  0.31561856  0.47082589  0.12804642  1
  O  O2857  1  0.31561856  0.47082589  0.29471308  1
  O  O2858  1  0.31561856  0.47082589  0.46137975  1
  O  O2859  1  0.31561856  0.47082589  0.62804642  1
  O  O2860  1  0.31561856  0.47082589  0.79471308  1
  O  O2861  1  0.31561856  0.47082589  0.96137975  1
  O  O2862  1  0.31561856  0.63749256  0.12804642  1
  O  O2863  1  0.31561856  0.63749256  0.29471308  1
  O  O2864  1  0.31561856  0.63749256  0.46137975  1
  O  O2865  1  0.31561856  0.63749256  0.62804642  1
  O  O2866  1  0.31561856  0.63749256  0.79471308  1
  O  O2867  1  0.31561856  0.63749256  0.96137975  1
  O  O2868  1  0.31561856  0.80415922  0.12804642  1
  O  O2869  1  0.31561856  0.80415922  0.29471308  1
  O  O2870  1  0.31561856  0.80415922  0.46137975  1
  O  O2871  1  0.31561856  0.80415922  0.62804642  1
  O  O2872  1  0.31561856  0.80415922  0.79471308  1
  O  O2873  1  0.31561856  0.80415922  0.96137975  1
  O  O2874  1  0.31561856  0.97082589  0.12804642  1
  O  O2875  1  0.31561856  0.97082589  0.29471308  1
  O  O2876  1  0.31561856  0.97082589  0.46137975  1
  O  O2877  1  0.31561856  0.97082589  0.62804642  1
  O  O2878  1  0.31561856  0.97082589  0.79471308  1
  O  O2879  1  0.31561856  0.97082589  0.96137975  1
  O  O2880  1  0.48228523  0.13749256  0.12804642  1
  O  O2881  1  0.48228523  0.13749256  0.29471308  1
  O  O2882  1  0.48228523  0.13749256  0.46137975  1
  O  O2883  1  0.48228523  0.13749256  0.62804642  1
  O  O2884  1  0.48228523  0.13749256  0.79471308  1
  O  O2885  1  0.48228523  0.13749256  0.96137975  1
  O  O2886  1  0.48228523  0.30415922  0.12804642  1
  O  O2887  1  0.48228523  0.30415922  0.29471308  1
  O  O2888  1  0.48228523  0.30415922  0.46137975  1
  O  O2889  1  0.48228523  0.30415922  0.62804642  1
  O  O2890  1  0.48228523  0.30415922  0.79471308  1
  O  O2891  1  0.48228523  0.30415922  0.96137975  1
  O  O2892  1  0.48228523  0.47082589  0.12804642  1
  O  O2893  1  0.48228523  0.47082589  0.29471308  1
  O  O2894  1  0.48228523  0.47082589  0.46137975  1
  O  O2895  1  0.48228523  0.47082589  0.62804642  1
  O  O2896  1  0.48228523  0.47082589  0.79471308  1
  O  O2897  1  0.48228523  0.47082589  0.96137975  1
  O  O2898  1  0.48228523  0.63749256  0.12804642  1
  O  O2899  1  0.48228523  0.63749256  0.29471308  1
  O  O2900  1  0.48228523  0.63749256  0.46137975  1
  O  O2901  1  0.48228523  0.63749256  0.62804642  1
  O  O2902  1  0.48228523  0.63749256  0.79471308  1
  O  O2903  1  0.48228523  0.63749256  0.96137975  1
  O  O2904  1  0.48228523  0.80415922  0.12804642  1
  O  O2905  1  0.48228523  0.80415922  0.29471308  1
  O  O2906  1  0.48228523  0.80415922  0.46137975  1
  O  O2907  1  0.48228523  0.80415922  0.62804642  1
  O  O2908  1  0.48228523  0.80415922  0.79471308  1
  O  O2909  1  0.48228523  0.80415922  0.96137975  1
  O  O2910  1  0.48228523  0.97082589  0.12804642  1
  O  O2911  1  0.48228523  0.97082589  0.29471308  1
  O  O2912  1  0.48228523  0.97082589  0.46137975  1
  O  O2913  1  0.48228523  0.97082589  0.62804642  1
  O  O2914  1  0.48228523  0.97082589  0.79471308  1
  O  O2915  1  0.48228523  0.97082589  0.96137975  1
  O  O2916  1  0.64895190  0.13749256  0.12804642  1
  O  O2917  1  0.64895190  0.13749256  0.29471308  1
  O  O2918  1  0.64895190  0.13749256  0.46137975  1
  O  O2919  1  0.64895190  0.13749256  0.62804642  1
  O  O2920  1  0.64895190  0.13749256  0.79471308  1
  O  O2921  1  0.64895190  0.13749256  0.96137975  1
  O  O2922  1  0.64895190  0.30415922  0.12804642  1
  O  O2923  1  0.64895190  0.30415922  0.29471308  1
  O  O2924  1  0.64895190  0.30415922  0.46137975  1
  O  O2925  1  0.64895190  0.30415922  0.62804642  1
  O  O2926  1  0.64895190  0.30415922  0.79471308  1
  O  O2927  1  0.64895190  0.30415922  0.96137975  1
  O  O2928  1  0.64895190  0.47082589  0.12804642  1
  O  O2929  1  0.64895190  0.47082589  0.29471308  1
  O  O2930  1  0.64895190  0.47082589  0.46137975  1
  O  O2931  1  0.64895190  0.47082589  0.62804642  1
  O  O2932  1  0.64895190  0.47082589  0.79471308  1
  O  O2933  1  0.64895190  0.47082589  0.96137975  1
  O  O2934  1  0.64895190  0.63749256  0.12804642  1
  O  O2935  1  0.64895190  0.63749256  0.29471308  1
  O  O2936  1  0.64895190  0.63749256  0.46137975  1
  O  O2937  1  0.64895190  0.63749256  0.62804642  1
  O  O2938  1  0.64895190  0.63749256  0.79471308  1
  O  O2939  1  0.64895190  0.63749256  0.96137975  1
  O  O2940  1  0.64895190  0.80415922  0.12804642  1
  O  O2941  1  0.64895190  0.80415922  0.29471308  1
  O  O2942  1  0.64895190  0.80415922  0.46137975  1
  O  O2943  1  0.64895190  0.80415922  0.62804642  1
  O  O2944  1  0.64895190  0.80415922  0.79471308  1
  O  O2945  1  0.64895190  0.80415922  0.96137975  1
  O  O2946  1  0.64895190  0.97082589  0.12804642  1
  O  O2947  1  0.64895190  0.97082589  0.29471308  1
  O  O2948  1  0.64895190  0.97082589  0.46137975  1
  O  O2949  1  0.64895190  0.97082589  0.62804642  1
  O  O2950  1  0.64895190  0.97082589  0.79471308  1
  O  O2951  1  0.64895190  0.97082589  0.96137975  1
  O  O2952  1  0.81561856  0.13749256  0.12804642  1
  O  O2953  1  0.81561856  0.13749256  0.29471308  1
  O  O2954  1  0.81561856  0.13749256  0.46137975  1
  O  O2955  1  0.81561856  0.13749256  0.62804642  1
  O  O2956  1  0.81561856  0.13749256  0.79471308  1
  O  O2957  1  0.81561856  0.13749256  0.96137975  1
  O  O2958  1  0.81561856  0.30415922  0.12804642  1
  O  O2959  1  0.81561856  0.30415922  0.29471308  1
  O  O2960  1  0.81561856  0.30415922  0.46137975  1
  O  O2961  1  0.81561856  0.30415922  0.62804642  1
  O  O2962  1  0.81561856  0.30415922  0.79471308  1
  O  O2963  1  0.81561856  0.30415922  0.96137975  1
  O  O2964  1  0.81561856  0.47082589  0.12804642  1
  O  O2965  1  0.81561856  0.47082589  0.29471308  1
  O  O2966  1  0.81561856  0.47082589  0.46137975  1
  O  O2967  1  0.81561856  0.47082589  0.62804642  1
  O  O2968  1  0.81561856  0.47082589  0.79471308  1
  O  O2969  1  0.81561856  0.47082589  0.96137975  1
  O  O2970  1  0.81561856  0.63749256  0.12804642  1
  O  O2971  1  0.81561856  0.63749256  0.29471308  1
  O  O2972  1  0.81561856  0.63749256  0.46137975  1
  O  O2973  1  0.81561856  0.63749256  0.62804642  1
  O  O2974  1  0.81561856  0.63749256  0.79471308  1
  O  O2975  1  0.81561856  0.63749256  0.96137975  1
  O  O2976  1  0.81561856  0.80415922  0.12804642  1
  O  O2977  1  0.81561856  0.80415922  0.29471308  1
  O  O2978  1  0.81561856  0.80415922  0.46137975  1
  O  O2979  1  0.81561856  0.80415922  0.62804642  1
  O  O2980  1  0.81561856  0.80415922  0.79471308  1
  O  O2981  1  0.81561856  0.80415922  0.96137975  1
  O  O2982  1  0.81561856  0.97082589  0.12804642  1
  O  O2983  1  0.81561856  0.97082589  0.29471308  1
  O  O2984  1  0.81561856  0.97082589  0.46137975  1
  O  O2985  1  0.81561856  0.97082589  0.62804642  1
  O  O2986  1  0.81561856  0.97082589  0.79471308  1
  O  O2987  1  0.81561856  0.97082589  0.96137975  1
  O  O2988  1  0.98228523  0.13749256  0.12804642  1
  O  O2989  1  0.98228523  0.13749256  0.29471308  1
  O  O2990  1  0.98228523  0.13749256  0.46137975  1
  O  O2991  1  0.98228523  0.13749256  0.62804642  1
  O  O2992  1  0.98228523  0.13749256  0.79471308  1
  O  O2993  1  0.98228523  0.13749256  0.96137975  1
  O  O2994  1  0.98228523  0.30415922  0.12804642  1
  O  O2995  1  0.98228523  0.30415922  0.29471308  1
  O  O2996  1  0.98228523  0.30415922  0.46137975  1
  O  O2997  1  0.98228523  0.30415922  0.62804642  1
  O  O2998  1  0.98228523  0.30415922  0.79471308  1
  O  O2999  1  0.98228523  0.30415922  0.96137975  1
  O  O3000  1  0.98228523  0.47082589  0.12804642  1
  O  O3001  1  0.98228523  0.47082589  0.29471308  1
  O  O3002  1  0.98228523  0.47082589  0.46137975  1
  O  O3003  1  0.98228523  0.47082589  0.62804642  1
  O  O3004  1  0.98228523  0.47082589  0.79471308  1
  O  O3005  1  0.98228523  0.47082589  0.96137975  1
  O  O3006  1  0.98228523  0.63749256  0.12804642  1
  O  O3007  1  0.98228523  0.63749256  0.29471308  1
  O  O3008  1  0.98228523  0.63749256  0.46137975  1
  O  O3009  1  0.98228523  0.63749256  0.62804642  1
  O  O3010  1  0.98228523  0.63749256  0.79471308  1
  O  O3011  1  0.98228523  0.63749256  0.96137975  1
  O  O3012  1  0.98228523  0.80415922  0.12804642  1
  O  O3013  1  0.98228523  0.80415922  0.29471308  1
  O  O3014  1  0.98228523  0.80415922  0.46137975  1
  O  O3015  1  0.98228523  0.80415922  0.62804642  1
  O  O3016  1  0.98228523  0.80415922  0.79471308  1
  O  O3017  1  0.98228523  0.80415922  0.96137975  1
  O  O3018  1  0.98228523  0.97082589  0.12804642  1
  O  O3019  1  0.98228523  0.97082589  0.29471308  1
  O  O3020  1  0.98228523  0.97082589  0.46137975  1
  O  O3021  1  0.98228523  0.97082589  0.62804642  1
  O  O3022  1  0.98228523  0.97082589  0.79471308  1
  O  O3023  1  0.98228523  0.97082589  0.96137975  1
  O  O3024  1  0.06022779  0.11177384  0.00000000  1
  O  O3025  1  0.06022779  0.11177384  0.16666667  1
  O  O3026  1  0.06022779  0.11177384  0.33333333  1
  O  O3027  1  0.06022779  0.11177384  0.50000000  1
  O  O3028  1  0.06022779  0.11177384  0.66666667  1
  O  O3029  1  0.06022779  0.11177384  0.83333333  1
  O  O3030  1  0.06022779  0.27844050  0.00000000  1
  O  O3031  1  0.06022779  0.27844050  0.16666667  1
  O  O3032  1  0.06022779  0.27844050  0.33333333  1
  O  O3033  1  0.06022779  0.27844050  0.50000000  1
  O  O3034  1  0.06022779  0.27844050  0.66666667  1
  O  O3035  1  0.06022779  0.27844050  0.83333333  1
  O  O3036  1  0.06022779  0.44510717  0.00000000  1
  O  O3037  1  0.06022779  0.44510717  0.16666667  1
  O  O3038  1  0.06022779  0.44510717  0.33333333  1
  O  O3039  1  0.06022779  0.44510717  0.50000000  1
  O  O3040  1  0.06022779  0.44510717  0.66666667  1
  O  O3041  1  0.06022779  0.44510717  0.83333333  1
  O  O3042  1  0.06022779  0.61177384  0.00000000  1
  O  O3043  1  0.06022779  0.61177384  0.16666667  1
  O  O3044  1  0.06022779  0.61177384  0.33333333  1
  O  O3045  1  0.06022779  0.61177384  0.50000000  1
  O  O3046  1  0.06022779  0.61177384  0.66666667  1
  O  O3047  1  0.06022779  0.61177384  0.83333333  1
  O  O3048  1  0.06022779  0.77844050  0.00000000  1
  O  O3049  1  0.06022779  0.77844050  0.16666667  1
  O  O3050  1  0.06022779  0.77844050  0.33333333  1
  O  O3051  1  0.06022779  0.77844050  0.50000000  1
  O  O3052  1  0.06022779  0.77844050  0.66666667  1
  O  O3053  1  0.06022779  0.77844050  0.83333333  1
  O  O3054  1  0.06022779  0.94510717  0.00000000  1
  O  O3055  1  0.06022779  0.94510717  0.16666667  1
  O  O3056  1  0.06022779  0.94510717  0.33333333  1
  O  O3057  1  0.06022779  0.94510717  0.50000000  1
  O  O3058  1  0.06022779  0.94510717  0.66666667  1
  O  O3059  1  0.06022779  0.94510717  0.83333333  1
  O  O3060  1  0.22689445  0.11177384  0.00000000  1
  O  O3061  1  0.22689445  0.11177384  0.16666667  1
  O  O3062  1  0.22689445  0.11177384  0.33333333  1
  O  O3063  1  0.22689445  0.11177384  0.50000000  1
  O  O3064  1  0.22689445  0.11177384  0.66666667  1
  O  O3065  1  0.22689445  0.11177384  0.83333333  1
  O  O3066  1  0.22689445  0.27844050  0.00000000  1
  O  O3067  1  0.22689445  0.27844050  0.16666667  1
  O  O3068  1  0.22689445  0.27844050  0.33333333  1
  O  O3069  1  0.22689445  0.27844050  0.50000000  1
  O  O3070  1  0.22689445  0.27844050  0.66666667  1
  O  O3071  1  0.22689445  0.27844050  0.83333333  1
  O  O3072  1  0.22689445  0.44510717  0.00000000  1
  O  O3073  1  0.22689445  0.44510717  0.16666667  1
  O  O3074  1  0.22689445  0.44510717  0.33333333  1
  O  O3075  1  0.22689445  0.44510717  0.50000000  1
  O  O3076  1  0.22689445  0.44510717  0.66666667  1
  O  O3077  1  0.22689445  0.44510717  0.83333333  1
  O  O3078  1  0.22689445  0.61177384  0.00000000  1
  O  O3079  1  0.22689445  0.61177384  0.16666667  1
  O  O3080  1  0.22689445  0.61177384  0.33333333  1
  O  O3081  1  0.22689445  0.61177384  0.50000000  1
  O  O3082  1  0.22689445  0.61177384  0.66666667  1
  O  O3083  1  0.22689445  0.61177384  0.83333333  1
  O  O3084  1  0.22689445  0.77844050  0.00000000  1
  O  O3085  1  0.22689445  0.77844050  0.16666667  1
  O  O3086  1  0.22689445  0.77844050  0.33333333  1
  O  O3087  1  0.22689445  0.77844050  0.50000000  1
  O  O3088  1  0.22689445  0.77844050  0.66666667  1
  O  O3089  1  0.22689445  0.77844050  0.83333333  1
  O  O3090  1  0.22689445  0.94510717  0.00000000  1
  O  O3091  1  0.22689445  0.94510717  0.16666667  1
  O  O3092  1  0.22689445  0.94510717  0.33333333  1
  O  O3093  1  0.22689445  0.94510717  0.50000000  1
  O  O3094  1  0.22689445  0.94510717  0.66666667  1
  O  O3095  1  0.22689445  0.94510717  0.83333333  1
  O  O3096  1  0.39356112  0.11177384  0.00000000  1
  O  O3097  1  0.39356112  0.11177384  0.16666667  1
  O  O3098  1  0.39356112  0.11177384  0.33333333  1
  O  O3099  1  0.39356112  0.11177384  0.50000000  1
  O  O3100  1  0.39356112  0.11177384  0.66666667  1
  O  O3101  1  0.39356112  0.11177384  0.83333333  1
  O  O3102  1  0.39356112  0.27844050  0.00000000  1
  O  O3103  1  0.39356112  0.27844050  0.16666667  1
  O  O3104  1  0.39356112  0.27844050  0.33333333  1
  O  O3105  1  0.39356112  0.27844050  0.50000000  1
  O  O3106  1  0.39356112  0.27844050  0.66666667  1
  O  O3107  1  0.39356112  0.27844050  0.83333333  1
  O  O3108  1  0.39356112  0.44510717  0.00000000  1
  O  O3109  1  0.39356112  0.44510717  0.16666667  1
  O  O3110  1  0.39356112  0.44510717  0.33333333  1
  O  O3111  1  0.39356112  0.44510717  0.50000000  1
  O  O3112  1  0.39356112  0.44510717  0.66666667  1
  O  O3113  1  0.39356112  0.44510717  0.83333333  1
  O  O3114  1  0.39356112  0.61177384  0.00000000  1
  O  O3115  1  0.39356112  0.61177384  0.16666667  1
  O  O3116  1  0.39356112  0.61177384  0.33333333  1
  O  O3117  1  0.39356112  0.61177384  0.50000000  1
  O  O3118  1  0.39356112  0.61177384  0.66666667  1
  O  O3119  1  0.39356112  0.61177384  0.83333333  1
  O  O3120  1  0.39356112  0.77844050  0.00000000  1
  O  O3121  1  0.39356112  0.77844050  0.16666667  1
  O  O3122  1  0.39356112  0.77844050  0.33333333  1
  O  O3123  1  0.39356112  0.77844050  0.50000000  1
  O  O3124  1  0.39356112  0.77844050  0.66666667  1
  O  O3125  1  0.39356112  0.77844050  0.83333333  1
  O  O3126  1  0.39356112  0.94510717  0.00000000  1
  O  O3127  1  0.39356112  0.94510717  0.16666667  1
  O  O3128  1  0.39356112  0.94510717  0.33333333  1
  O  O3129  1  0.39356112  0.94510717  0.50000000  1
  O  O3130  1  0.39356112  0.94510717  0.66666667  1
  O  O3131  1  0.39356112  0.94510717  0.83333333  1
  O  O3132  1  0.56022779  0.11177384  0.00000000  1
  O  O3133  1  0.56022779  0.11177384  0.16666667  1
  O  O3134  1  0.56022779  0.11177384  0.33333333  1
  O  O3135  1  0.56022779  0.11177384  0.50000000  1
  O  O3136  1  0.56022779  0.11177384  0.66666667  1
  O  O3137  1  0.56022779  0.11177384  0.83333333  1
  O  O3138  1  0.56022779  0.27844050  0.00000000  1
  O  O3139  1  0.56022779  0.27844050  0.16666667  1
  O  O3140  1  0.56022779  0.27844050  0.33333333  1
  O  O3141  1  0.56022779  0.27844050  0.50000000  1
  O  O3142  1  0.56022779  0.27844050  0.66666667  1
  O  O3143  1  0.56022779  0.27844050  0.83333333  1
  O  O3144  1  0.56022779  0.44510717  0.00000000  1
  O  O3145  1  0.56022779  0.44510717  0.16666667  1
  O  O3146  1  0.56022779  0.44510717  0.33333333  1
  O  O3147  1  0.56022779  0.44510717  0.50000000  1
  O  O3148  1  0.56022779  0.44510717  0.66666667  1
  O  O3149  1  0.56022779  0.44510717  0.83333333  1
  O  O3150  1  0.56022779  0.61177384  0.00000000  1
  O  O3151  1  0.56022779  0.61177384  0.16666667  1
  O  O3152  1  0.56022779  0.61177384  0.33333333  1
  O  O3153  1  0.56022779  0.61177384  0.50000000  1
  O  O3154  1  0.56022779  0.61177384  0.66666667  1
  O  O3155  1  0.56022779  0.61177384  0.83333333  1
  O  O3156  1  0.56022779  0.77844050  0.00000000  1
  O  O3157  1  0.56022779  0.77844050  0.16666667  1
  O  O3158  1  0.56022779  0.77844050  0.33333333  1
  O  O3159  1  0.56022779  0.77844050  0.50000000  1
  O  O3160  1  0.56022779  0.77844050  0.66666667  1
  O  O3161  1  0.56022779  0.77844050  0.83333333  1
  O  O3162  1  0.56022779  0.94510717  0.00000000  1
  O  O3163  1  0.56022779  0.94510717  0.16666667  1
  O  O3164  1  0.56022779  0.94510717  0.33333333  1
  O  O3165  1  0.56022779  0.94510717  0.50000000  1
  O  O3166  1  0.56022779  0.94510717  0.66666667  1
  O  O3167  1  0.56022779  0.94510717  0.83333333  1
  O  O3168  1  0.72689445  0.11177384  0.00000000  1
  O  O3169  1  0.72689445  0.11177384  0.16666667  1
  O  O3170  1  0.72689445  0.11177384  0.33333333  1
  O  O3171  1  0.72689445  0.11177384  0.50000000  1
  O  O3172  1  0.72689445  0.11177384  0.66666667  1
  O  O3173  1  0.72689445  0.11177384  0.83333333  1
  O  O3174  1  0.72689445  0.27844050  0.00000000  1
  O  O3175  1  0.72689445  0.27844050  0.16666667  1
  O  O3176  1  0.72689445  0.27844050  0.33333333  1
  O  O3177  1  0.72689445  0.27844050  0.50000000  1
  O  O3178  1  0.72689445  0.27844050  0.66666667  1
  O  O3179  1  0.72689445  0.27844050  0.83333333  1
  O  O3180  1  0.72689445  0.44510717  0.00000000  1
  O  O3181  1  0.72689445  0.44510717  0.16666667  1
  O  O3182  1  0.72689445  0.44510717  0.33333333  1
  O  O3183  1  0.72689445  0.44510717  0.50000000  1
  O  O3184  1  0.72689445  0.44510717  0.66666667  1
  O  O3185  1  0.72689445  0.44510717  0.83333333  1
  O  O3186  1  0.72689445  0.61177384  0.00000000  1
  O  O3187  1  0.72689445  0.61177384  0.16666667  1
  O  O3188  1  0.72689445  0.61177384  0.33333333  1
  O  O3189  1  0.72689445  0.61177384  0.50000000  1
  O  O3190  1  0.72689445  0.61177384  0.66666667  1
  O  O3191  1  0.72689445  0.61177384  0.83333333  1
  O  O3192  1  0.72689445  0.77844050  0.00000000  1
  O  O3193  1  0.72689445  0.77844050  0.16666667  1
  O  O3194  1  0.72689445  0.77844050  0.33333333  1
  O  O3195  1  0.72689445  0.77844050  0.50000000  1
  O  O3196  1  0.72689445  0.77844050  0.66666667  1
  O  O3197  1  0.72689445  0.77844050  0.83333333  1
  O  O3198  1  0.72689445  0.94510717  0.00000000  1
  O  O3199  1  0.72689445  0.94510717  0.16666667  1
  O  O3200  1  0.72689445  0.94510717  0.33333333  1
  O  O3201  1  0.72689445  0.94510717  0.50000000  1
  O  O3202  1  0.72689445  0.94510717  0.66666667  1
  O  O3203  1  0.72689445  0.94510717  0.83333333  1
  O  O3204  1  0.89356112  0.11177384  0.00000000  1
  O  O3205  1  0.89356112  0.11177384  0.16666667  1
  O  O3206  1  0.89356112  0.11177384  0.33333333  1
  O  O3207  1  0.89356112  0.11177384  0.50000000  1
  O  O3208  1  0.89356112  0.11177384  0.66666667  1
  O  O3209  1  0.89356112  0.11177384  0.83333333  1
  O  O3210  1  0.89356112  0.27844050  0.00000000  1
  O  O3211  1  0.89356112  0.27844050  0.16666667  1
  O  O3212  1  0.89356112  0.27844050  0.33333333  1
  O  O3213  1  0.89356112  0.27844050  0.50000000  1
  O  O3214  1  0.89356112  0.27844050  0.66666667  1
  O  O3215  1  0.89356112  0.27844050  0.83333333  1
  O  O3216  1  0.89356112  0.44510717  0.00000000  1
  O  O3217  1  0.89356112  0.44510717  0.16666667  1
  O  O3218  1  0.89356112  0.44510717  0.33333333  1
  O  O3219  1  0.89356112  0.44510717  0.50000000  1
  O  O3220  1  0.89356112  0.44510717  0.66666667  1
  O  O3221  1  0.89356112  0.44510717  0.83333333  1
  O  O3222  1  0.89356112  0.61177384  0.00000000  1
  O  O3223  1  0.89356112  0.61177384  0.16666667  1
  O  O3224  1  0.89356112  0.61177384  0.33333333  1
  O  O3225  1  0.89356112  0.61177384  0.50000000  1
  O  O3226  1  0.89356112  0.61177384  0.66666667  1
  O  O3227  1  0.89356112  0.61177384  0.83333333  1
  O  O3228  1  0.89356112  0.77844050  0.00000000  1
  O  O3229  1  0.89356112  0.77844050  0.16666667  1
  O  O3230  1  0.89356112  0.77844050  0.33333333  1
  O  O3231  1  0.89356112  0.77844050  0.50000000  1
  O  O3232  1  0.89356112  0.77844050  0.66666667  1
  O  O3233  1  0.89356112  0.77844050  0.83333333  1
  O  O3234  1  0.89356112  0.94510717  0.00000000  1
  O  O3235  1  0.89356112  0.94510717  0.16666667  1
  O  O3236  1  0.89356112  0.94510717  0.33333333  1
  O  O3237  1  0.89356112  0.94510717  0.50000000  1
  O  O3238  1  0.89356112  0.94510717  0.66666667  1
  O  O3239  1  0.89356112  0.94510717  0.83333333  1
  O  O3240  1  0.14356112  0.05489283  0.08333333  1
  O  O3241  1  0.14356112  0.05489283  0.25000000  1
  O  O3242  1  0.14356112  0.05489283  0.41666667  1
  O  O3243  1  0.14356112  0.05489283  0.58333333  1
  O  O3244  1  0.14356112  0.05489283  0.75000000  1
  O  O3245  1  0.14356112  0.05489283  0.91666667  1
  O  O3246  1  0.14356112  0.22155950  0.08333333  1
  O  O3247  1  0.14356112  0.22155950  0.25000000  1
  O  O3248  1  0.14356112  0.22155950  0.41666667  1
  O  O3249  1  0.14356112  0.22155950  0.58333333  1
  O  O3250  1  0.14356112  0.22155950  0.75000000  1
  O  O3251  1  0.14356112  0.22155950  0.91666667  1
  O  O3252  1  0.14356112  0.38822616  0.08333333  1
  O  O3253  1  0.14356112  0.38822616  0.25000000  1
  O  O3254  1  0.14356112  0.38822616  0.41666667  1
  O  O3255  1  0.14356112  0.38822616  0.58333333  1
  O  O3256  1  0.14356112  0.38822616  0.75000000  1
  O  O3257  1  0.14356112  0.38822616  0.91666667  1
  O  O3258  1  0.14356112  0.55489283  0.08333333  1
  O  O3259  1  0.14356112  0.55489283  0.25000000  1
  O  O3260  1  0.14356112  0.55489283  0.41666667  1
  O  O3261  1  0.14356112  0.55489283  0.58333333  1
  O  O3262  1  0.14356112  0.55489283  0.75000000  1
  O  O3263  1  0.14356112  0.55489283  0.91666667  1
  O  O3264  1  0.14356112  0.72155950  0.08333333  1
  O  O3265  1  0.14356112  0.72155950  0.25000000  1
  O  O3266  1  0.14356112  0.72155950  0.41666667  1
  O  O3267  1  0.14356112  0.72155950  0.58333333  1
  O  O3268  1  0.14356112  0.72155950  0.75000000  1
  O  O3269  1  0.14356112  0.72155950  0.91666667  1
  O  O3270  1  0.14356112  0.88822616  0.08333333  1
  O  O3271  1  0.14356112  0.88822616  0.25000000  1
  O  O3272  1  0.14356112  0.88822616  0.41666667  1
  O  O3273  1  0.14356112  0.88822616  0.58333333  1
  O  O3274  1  0.14356112  0.88822616  0.75000000  1
  O  O3275  1  0.14356112  0.88822616  0.91666667  1
  O  O3276  1  0.31022779  0.05489283  0.08333333  1
  O  O3277  1  0.31022779  0.05489283  0.25000000  1
  O  O3278  1  0.31022779  0.05489283  0.41666667  1
  O  O3279  1  0.31022779  0.05489283  0.58333333  1
  O  O3280  1  0.31022779  0.05489283  0.75000000  1
  O  O3281  1  0.31022779  0.05489283  0.91666667  1
  O  O3282  1  0.31022779  0.22155950  0.08333333  1
  O  O3283  1  0.31022779  0.22155950  0.25000000  1
  O  O3284  1  0.31022779  0.22155950  0.41666667  1
  O  O3285  1  0.31022779  0.22155950  0.58333333  1
  O  O3286  1  0.31022779  0.22155950  0.75000000  1
  O  O3287  1  0.31022779  0.22155950  0.91666667  1
  O  O3288  1  0.31022779  0.38822616  0.08333333  1
  O  O3289  1  0.31022779  0.38822616  0.25000000  1
  O  O3290  1  0.31022779  0.38822616  0.41666667  1
  O  O3291  1  0.31022779  0.38822616  0.58333333  1
  O  O3292  1  0.31022779  0.38822616  0.75000000  1
  O  O3293  1  0.31022779  0.38822616  0.91666667  1
  O  O3294  1  0.31022779  0.55489283  0.08333333  1
  O  O3295  1  0.31022779  0.55489283  0.25000000  1
  O  O3296  1  0.31022779  0.55489283  0.41666667  1
  O  O3297  1  0.31022779  0.55489283  0.58333333  1
  O  O3298  1  0.31022779  0.55489283  0.75000000  1
  O  O3299  1  0.31022779  0.55489283  0.91666667  1
  O  O3300  1  0.31022779  0.72155950  0.08333333  1
  O  O3301  1  0.31022779  0.72155950  0.25000000  1
  O  O3302  1  0.31022779  0.72155950  0.41666667  1
  O  O3303  1  0.31022779  0.72155950  0.58333333  1
  O  O3304  1  0.31022779  0.72155950  0.75000000  1
  O  O3305  1  0.31022779  0.72155950  0.91666667  1
  O  O3306  1  0.31022779  0.88822616  0.08333333  1
  O  O3307  1  0.31022779  0.88822616  0.25000000  1
  O  O3308  1  0.31022779  0.88822616  0.41666667  1
  O  O3309  1  0.31022779  0.88822616  0.58333333  1
  O  O3310  1  0.31022779  0.88822616  0.75000000  1
  O  O3311  1  0.31022779  0.88822616  0.91666667  1
  O  O3312  1  0.47689445  0.05489283  0.08333333  1
  O  O3313  1  0.47689445  0.05489283  0.25000000  1
  O  O3314  1  0.47689445  0.05489283  0.41666667  1
  O  O3315  1  0.47689445  0.05489283  0.58333333  1
  O  O3316  1  0.47689445  0.05489283  0.75000000  1
  O  O3317  1  0.47689445  0.05489283  0.91666667  1
  O  O3318  1  0.47689445  0.22155950  0.08333333  1
  O  O3319  1  0.47689445  0.22155950  0.25000000  1
  O  O3320  1  0.47689445  0.22155950  0.41666667  1
  O  O3321  1  0.47689445  0.22155950  0.58333333  1
  O  O3322  1  0.47689445  0.22155950  0.75000000  1
  O  O3323  1  0.47689445  0.22155950  0.91666667  1
  O  O3324  1  0.47689445  0.38822616  0.08333333  1
  O  O3325  1  0.47689445  0.38822616  0.25000000  1
  O  O3326  1  0.47689445  0.38822616  0.41666667  1
  O  O3327  1  0.47689445  0.38822616  0.58333333  1
  O  O3328  1  0.47689445  0.38822616  0.75000000  1
  O  O3329  1  0.47689445  0.38822616  0.91666667  1
  O  O3330  1  0.47689445  0.55489283  0.08333333  1
  O  O3331  1  0.47689445  0.55489283  0.25000000  1
  O  O3332  1  0.47689445  0.55489283  0.41666667  1
  O  O3333  1  0.47689445  0.55489283  0.58333333  1
  O  O3334  1  0.47689445  0.55489283  0.75000000  1
  O  O3335  1  0.47689445  0.55489283  0.91666667  1
  O  O3336  1  0.47689445  0.72155950  0.08333333  1
  O  O3337  1  0.47689445  0.72155950  0.25000000  1
  O  O3338  1  0.47689445  0.72155950  0.41666667  1
  O  O3339  1  0.47689445  0.72155950  0.58333333  1
  O  O3340  1  0.47689445  0.72155950  0.75000000  1
  O  O3341  1  0.47689445  0.72155950  0.91666667  1
  O  O3342  1  0.47689445  0.88822616  0.08333333  1
  O  O3343  1  0.47689445  0.88822616  0.25000000  1
  O  O3344  1  0.47689445  0.88822616  0.41666667  1
  O  O3345  1  0.47689445  0.88822616  0.58333333  1
  O  O3346  1  0.47689445  0.88822616  0.75000000  1
  O  O3347  1  0.47689445  0.88822616  0.91666667  1
  O  O3348  1  0.64356112  0.05489283  0.08333333  1
  O  O3349  1  0.64356112  0.05489283  0.25000000  1
  O  O3350  1  0.64356112  0.05489283  0.41666667  1
  O  O3351  1  0.64356112  0.05489283  0.58333333  1
  O  O3352  1  0.64356112  0.05489283  0.75000000  1
  O  O3353  1  0.64356112  0.05489283  0.91666667  1
  O  O3354  1  0.64356112  0.22155950  0.08333333  1
  O  O3355  1  0.64356112  0.22155950  0.25000000  1
  O  O3356  1  0.64356112  0.22155950  0.41666667  1
  O  O3357  1  0.64356112  0.22155950  0.58333333  1
  O  O3358  1  0.64356112  0.22155950  0.75000000  1
  O  O3359  1  0.64356112  0.22155950  0.91666667  1
  O  O3360  1  0.64356112  0.38822616  0.08333333  1
  O  O3361  1  0.64356112  0.38822616  0.25000000  1
  O  O3362  1  0.64356112  0.38822616  0.41666667  1
  O  O3363  1  0.64356112  0.38822616  0.58333333  1
  O  O3364  1  0.64356112  0.38822616  0.75000000  1
  O  O3365  1  0.64356112  0.38822616  0.91666667  1
  O  O3366  1  0.64356112  0.55489283  0.08333333  1
  O  O3367  1  0.64356112  0.55489283  0.25000000  1
  O  O3368  1  0.64356112  0.55489283  0.41666667  1
  O  O3369  1  0.64356112  0.55489283  0.58333333  1
  O  O3370  1  0.64356112  0.55489283  0.75000000  1
  O  O3371  1  0.64356112  0.55489283  0.91666667  1
  O  O3372  1  0.64356112  0.72155950  0.08333333  1
  O  O3373  1  0.64356112  0.72155950  0.25000000  1
  O  O3374  1  0.64356112  0.72155950  0.41666667  1
  O  O3375  1  0.64356112  0.72155950  0.58333333  1
  O  O3376  1  0.64356112  0.72155950  0.75000000  1
  O  O3377  1  0.64356112  0.72155950  0.91666667  1
  O  O3378  1  0.64356112  0.88822616  0.08333333  1
  O  O3379  1  0.64356112  0.88822616  0.25000000  1
  O  O3380  1  0.64356112  0.88822616  0.41666667  1
  O  O3381  1  0.64356112  0.88822616  0.58333333  1
  O  O3382  1  0.64356112  0.88822616  0.75000000  1
  O  O3383  1  0.64356112  0.88822616  0.91666667  1
  O  O3384  1  0.81022779  0.05489283  0.08333333  1
  O  O3385  1  0.81022779  0.05489283  0.25000000  1
  O  O3386  1  0.81022779  0.05489283  0.41666667  1
  O  O3387  1  0.81022779  0.05489283  0.58333333  1
  O  O3388  1  0.81022779  0.05489283  0.75000000  1
  O  O3389  1  0.81022779  0.05489283  0.91666667  1
  O  O3390  1  0.81022779  0.22155950  0.08333333  1
  O  O3391  1  0.81022779  0.22155950  0.25000000  1
  O  O3392  1  0.81022779  0.22155950  0.41666667  1
  O  O3393  1  0.81022779  0.22155950  0.58333333  1
  O  O3394  1  0.81022779  0.22155950  0.75000000  1
  O  O3395  1  0.81022779  0.22155950  0.91666667  1
  O  O3396  1  0.81022779  0.38822616  0.08333333  1
  O  O3397  1  0.81022779  0.38822616  0.25000000  1
  O  O3398  1  0.81022779  0.38822616  0.41666667  1
  O  O3399  1  0.81022779  0.38822616  0.58333333  1
  O  O3400  1  0.81022779  0.38822616  0.75000000  1
  O  O3401  1  0.81022779  0.38822616  0.91666667  1
  O  O3402  1  0.81022779  0.55489283  0.08333333  1
  O  O3403  1  0.81022779  0.55489283  0.25000000  1
  O  O3404  1  0.81022779  0.55489283  0.41666667  1
  O  O3405  1  0.81022779  0.55489283  0.58333333  1
  O  O3406  1  0.81022779  0.55489283  0.75000000  1
  O  O3407  1  0.81022779  0.55489283  0.91666667  1
  O  O3408  1  0.81022779  0.72155950  0.08333333  1
  O  O3409  1  0.81022779  0.72155950  0.25000000  1
  O  O3410  1  0.81022779  0.72155950  0.41666667  1
  O  O3411  1  0.81022779  0.72155950  0.58333333  1
  O  O3412  1  0.81022779  0.72155950  0.75000000  1
  O  O3413  1  0.81022779  0.72155950  0.91666667  1
  O  O3414  1  0.81022779  0.88822616  0.08333333  1
  O  O3415  1  0.81022779  0.88822616  0.25000000  1
  O  O3416  1  0.81022779  0.88822616  0.41666667  1
  O  O3417  1  0.81022779  0.88822616  0.58333333  1
  O  O3418  1  0.81022779  0.88822616  0.75000000  1
  O  O3419  1  0.81022779  0.88822616  0.91666667  1
  O  O3420  1  0.97689445  0.05489283  0.08333333  1
  O  O3421  1  0.97689445  0.05489283  0.25000000  1
  O  O3422  1  0.97689445  0.05489283  0.41666667  1
  O  O3423  1  0.97689445  0.05489283  0.58333333  1
  O  O3424  1  0.97689445  0.05489283  0.75000000  1
  O  O3425  1  0.97689445  0.05489283  0.91666667  1
  O  O3426  1  0.97689445  0.22155950  0.08333333  1
  O  O3427  1  0.97689445  0.22155950  0.25000000  1
  O  O3428  1  0.97689445  0.22155950  0.41666667  1
  O  O3429  1  0.97689445  0.22155950  0.58333333  1
  O  O3430  1  0.97689445  0.22155950  0.75000000  1
  O  O3431  1  0.97689445  0.22155950  0.91666667  1
  O  O3432  1  0.97689445  0.38822616  0.08333333  1
  O  O3433  1  0.97689445  0.38822616  0.25000000  1
  O  O3434  1  0.97689445  0.38822616  0.41666667  1
  O  O3435  1  0.97689445  0.38822616  0.58333333  1
  O  O3436  1  0.97689445  0.38822616  0.75000000  1
  O  O3437  1  0.97689445  0.38822616  0.91666667  1
  O  O3438  1  0.97689445  0.55489283  0.08333333  1
  O  O3439  1  0.97689445  0.55489283  0.25000000  1
  O  O3440  1  0.97689445  0.55489283  0.41666667  1
  O  O3441  1  0.97689445  0.55489283  0.58333333  1
  O  O3442  1  0.97689445  0.55489283  0.75000000  1
  O  O3443  1  0.97689445  0.55489283  0.91666667  1
  O  O3444  1  0.97689445  0.72155950  0.08333333  1
  O  O3445  1  0.97689445  0.72155950  0.25000000  1
  O  O3446  1  0.97689445  0.72155950  0.41666667  1
  O  O3447  1  0.97689445  0.72155950  0.58333333  1
  O  O3448  1  0.97689445  0.72155950  0.75000000  1
  O  O3449  1  0.97689445  0.72155950  0.91666667  1
  O  O3450  1  0.97689445  0.88822616  0.08333333  1
  O  O3451  1  0.97689445  0.88822616  0.25000000  1
  O  O3452  1  0.97689445  0.88822616  0.41666667  1
  O  O3453  1  0.97689445  0.88822616  0.58333333  1
  O  O3454  1  0.97689445  0.88822616  0.75000000  1
  O  O3455  1  0.97689445  0.88822616  0.91666667  1
