# generated using pymatgen
data_Li2B3PO8
_symmetry_space_group_name_H-M   'P 1'
_cell_length_a   26.35709100
_cell_length_b   32.52687631
_cell_length_c   39.23060328
_cell_angle_alpha   90.71543568
_cell_angle_beta   90.58862452
_cell_angle_gamma   90.07424156
_symmetry_Int_Tables_number   1
_chemical_formula_structural   Li2B3PO8
_chemical_formula_sum   'Li432 B648 P216 O1728'
_cell_volume   33628.50831674
_cell_formula_units_Z   216
loop_
 _symmetry_equiv_pos_site_id
 _symmetry_equiv_pos_as_xyz
  1  'x, y, z'
loop_
 _atom_site_type_symbol
 _atom_site_label
 _atom_site_symmetry_multiplicity
 _atom_site_fract_x
 _atom_site_fract_y
 _atom_site_fract_z
 _atom_site_occupancy
  Li  Li0  1  0.29332867  0.21825167  0.09520833  1
  Li  Li1  1  0.29332867  0.21825167  0.42854167  1
  Li  Li2  1  0.29332867  0.21825167  0.76187500  1
  Li  Li3  1  0.29332867  0.55158500  0.09520833  1
  Li  Li4  1  0.29332867  0.55158500  0.42854167  1
  Li  Li5  1  0.29332867  0.55158500  0.76187500  1
  Li  Li6  1  0.29332867  0.88491833  0.09520833  1
  Li  Li7  1  0.29332867  0.88491833  0.42854167  1
  Li  Li8  1  0.29332867  0.88491833  0.76187500  1
  Li  Li9  1  0.62666200  0.21825167  0.09520833  1
  Li  Li10  1  0.62666200  0.21825167  0.42854167  1
  Li  Li11  1  0.62666200  0.21825167  0.76187500  1
  Li  Li12  1  0.62666200  0.55158500  0.09520833  1
  Li  Li13  1  0.62666200  0.55158500  0.42854167  1
  Li  Li14  1  0.62666200  0.55158500  0.76187500  1
  Li  Li15  1  0.62666200  0.88491833  0.09520833  1
  Li  Li16  1  0.62666200  0.88491833  0.42854167  1
  Li  Li17  1  0.62666200  0.88491833  0.76187500  1
  Li  Li18  1  0.95999533  0.21825167  0.09520833  1
  Li  Li19  1  0.95999533  0.21825167  0.42854167  1
  Li  Li20  1  0.95999533  0.21825167  0.76187500  1
  Li  Li21  1  0.95999533  0.55158500  0.09520833  1
  Li  Li22  1  0.95999533  0.55158500  0.42854167  1
  Li  Li23  1  0.95999533  0.55158500  0.76187500  1
  Li  Li24  1  0.95999533  0.88491833  0.09520833  1
  Li  Li25  1  0.95999533  0.88491833  0.42854167  1
  Li  Li26  1  0.95999533  0.88491833  0.76187500  1
  Li  Li27  1  0.04000467  0.11508167  0.23812500  1
  Li  Li28  1  0.04000467  0.11508167  0.57145833  1
  Li  Li29  1  0.04000467  0.11508167  0.90479167  1
  Li  Li30  1  0.04000467  0.44841500  0.23812500  1
  Li  Li31  1  0.04000467  0.44841500  0.57145833  1
  Li  Li32  1  0.04000467  0.44841500  0.90479167  1
  Li  Li33  1  0.04000467  0.78174833  0.23812500  1
  Li  Li34  1  0.04000467  0.78174833  0.57145833  1
  Li  Li35  1  0.04000467  0.78174833  0.90479167  1
  Li  Li36  1  0.37333800  0.11508167  0.23812500  1
  Li  Li37  1  0.37333800  0.11508167  0.57145833  1
  Li  Li38  1  0.37333800  0.11508167  0.90479167  1
  Li  Li39  1  0.37333800  0.44841500  0.23812500  1
  Li  Li40  1  0.37333800  0.44841500  0.57145833  1
  Li  Li41  1  0.37333800  0.44841500  0.90479167  1
  Li  Li42  1  0.37333800  0.78174833  0.23812500  1
  Li  Li43  1  0.37333800  0.78174833  0.57145833  1
  Li  Li44  1  0.37333800  0.78174833  0.90479167  1
  Li  Li45  1  0.70667133  0.11508167  0.23812500  1
  Li  Li46  1  0.70667133  0.11508167  0.57145833  1
  Li  Li47  1  0.70667133  0.11508167  0.90479167  1
  Li  Li48  1  0.70667133  0.44841500  0.23812500  1
  Li  Li49  1  0.70667133  0.44841500  0.57145833  1
  Li  Li50  1  0.70667133  0.44841500  0.90479167  1
  Li  Li51  1  0.70667133  0.78174833  0.23812500  1
  Li  Li52  1  0.70667133  0.78174833  0.57145833  1
  Li  Li53  1  0.70667133  0.78174833  0.90479167  1
  Li  Li54  1  0.28830833  0.07588567  0.24549200  1
  Li  Li55  1  0.28830833  0.07588567  0.57882533  1
  Li  Li56  1  0.28830833  0.07588567  0.91215867  1
  Li  Li57  1  0.28830833  0.40921900  0.24549200  1
  Li  Li58  1  0.28830833  0.40921900  0.57882533  1
  Li  Li59  1  0.28830833  0.40921900  0.91215867  1
  Li  Li60  1  0.28830833  0.74255233  0.24549200  1
  Li  Li61  1  0.28830833  0.74255233  0.57882533  1
  Li  Li62  1  0.28830833  0.74255233  0.91215867  1
  Li  Li63  1  0.62164167  0.07588567  0.24549200  1
  Li  Li64  1  0.62164167  0.07588567  0.57882533  1
  Li  Li65  1  0.62164167  0.07588567  0.91215867  1
  Li  Li66  1  0.62164167  0.40921900  0.24549200  1
  Li  Li67  1  0.62164167  0.40921900  0.57882533  1
  Li  Li68  1  0.62164167  0.40921900  0.91215867  1
  Li  Li69  1  0.62164167  0.74255233  0.24549200  1
  Li  Li70  1  0.62164167  0.74255233  0.57882533  1
  Li  Li71  1  0.62164167  0.74255233  0.91215867  1
  Li  Li72  1  0.95497500  0.07588567  0.24549200  1
  Li  Li73  1  0.95497500  0.07588567  0.57882533  1
  Li  Li74  1  0.95497500  0.07588567  0.91215867  1
  Li  Li75  1  0.95497500  0.40921900  0.24549200  1
  Li  Li76  1  0.95497500  0.40921900  0.57882533  1
  Li  Li77  1  0.95497500  0.40921900  0.91215867  1
  Li  Li78  1  0.95497500  0.74255233  0.24549200  1
  Li  Li79  1  0.95497500  0.74255233  0.57882533  1
  Li  Li80  1  0.95497500  0.74255233  0.91215867  1
  Li  Li81  1  0.04502500  0.25744767  0.08784133  1
  Li  Li82  1  0.04502500  0.25744767  0.42117467  1
  Li  Li83  1  0.04502500  0.25744767  0.75450800  1
  Li  Li84  1  0.04502500  0.59078100  0.08784133  1
  Li  Li85  1  0.04502500  0.59078100  0.42117467  1
  Li  Li86  1  0.04502500  0.59078100  0.75450800  1
  Li  Li87  1  0.04502500  0.92411433  0.08784133  1
  Li  Li88  1  0.04502500  0.92411433  0.42117467  1
  Li  Li89  1  0.04502500  0.92411433  0.75450800  1
  Li  Li90  1  0.37835833  0.25744767  0.08784133  1
  Li  Li91  1  0.37835833  0.25744767  0.42117467  1
  Li  Li92  1  0.37835833  0.25744767  0.75450800  1
  Li  Li93  1  0.37835833  0.59078100  0.08784133  1
  Li  Li94  1  0.37835833  0.59078100  0.42117467  1
  Li  Li95  1  0.37835833  0.59078100  0.75450800  1
  Li  Li96  1  0.37835833  0.92411433  0.08784133  1
  Li  Li97  1  0.37835833  0.92411433  0.42117467  1
  Li  Li98  1  0.37835833  0.92411433  0.75450800  1
  Li  Li99  1  0.71169167  0.25744767  0.08784133  1
  Li  Li100  1  0.71169167  0.25744767  0.42117467  1
  Li  Li101  1  0.71169167  0.25744767  0.75450800  1
  Li  Li102  1  0.71169167  0.59078100  0.08784133  1
  Li  Li103  1  0.71169167  0.59078100  0.42117467  1
  Li  Li104  1  0.71169167  0.59078100  0.75450800  1
  Li  Li105  1  0.71169167  0.92411433  0.08784133  1
  Li  Li106  1  0.71169167  0.92411433  0.42117467  1
  Li  Li107  1  0.71169167  0.92411433  0.75450800  1
  Li  Li108  1  0.26071833  0.24077400  0.32039067  1
  Li  Li109  1  0.26071833  0.24077400  0.65372400  1
  Li  Li110  1  0.26071833  0.24077400  0.98705733  1
  Li  Li111  1  0.26071833  0.57410733  0.32039067  1
  Li  Li112  1  0.26071833  0.57410733  0.65372400  1
  Li  Li113  1  0.26071833  0.57410733  0.98705733  1
  Li  Li114  1  0.26071833  0.90744067  0.32039067  1
  Li  Li115  1  0.26071833  0.90744067  0.65372400  1
  Li  Li116  1  0.26071833  0.90744067  0.98705733  1
  Li  Li117  1  0.59405167  0.24077400  0.32039067  1
  Li  Li118  1  0.59405167  0.24077400  0.65372400  1
  Li  Li119  1  0.59405167  0.24077400  0.98705733  1
  Li  Li120  1  0.59405167  0.57410733  0.32039067  1
  Li  Li121  1  0.59405167  0.57410733  0.65372400  1
  Li  Li122  1  0.59405167  0.57410733  0.98705733  1
  Li  Li123  1  0.59405167  0.90744067  0.32039067  1
  Li  Li124  1  0.59405167  0.90744067  0.65372400  1
  Li  Li125  1  0.59405167  0.90744067  0.98705733  1
  Li  Li126  1  0.92738500  0.24077400  0.32039067  1
  Li  Li127  1  0.92738500  0.24077400  0.65372400  1
  Li  Li128  1  0.92738500  0.24077400  0.98705733  1
  Li  Li129  1  0.92738500  0.57410733  0.32039067  1
  Li  Li130  1  0.92738500  0.57410733  0.65372400  1
  Li  Li131  1  0.92738500  0.57410733  0.98705733  1
  Li  Li132  1  0.92738500  0.90744067  0.32039067  1
  Li  Li133  1  0.92738500  0.90744067  0.65372400  1
  Li  Li134  1  0.92738500  0.90744067  0.98705733  1
  Li  Li135  1  0.07261500  0.09255933  0.01294267  1
  Li  Li136  1  0.07261500  0.09255933  0.34627600  1
  Li  Li137  1  0.07261500  0.09255933  0.67960933  1
  Li  Li138  1  0.07261500  0.42589267  0.01294267  1
  Li  Li139  1  0.07261500  0.42589267  0.34627600  1
  Li  Li140  1  0.07261500  0.42589267  0.67960933  1
  Li  Li141  1  0.07261500  0.75922600  0.01294267  1
  Li  Li142  1  0.07261500  0.75922600  0.34627600  1
  Li  Li143  1  0.07261500  0.75922600  0.67960933  1
  Li  Li144  1  0.40594833  0.09255933  0.01294267  1
  Li  Li145  1  0.40594833  0.09255933  0.34627600  1
  Li  Li146  1  0.40594833  0.09255933  0.67960933  1
  Li  Li147  1  0.40594833  0.42589267  0.01294267  1
  Li  Li148  1  0.40594833  0.42589267  0.34627600  1
  Li  Li149  1  0.40594833  0.42589267  0.67960933  1
  Li  Li150  1  0.40594833  0.75922600  0.01294267  1
  Li  Li151  1  0.40594833  0.75922600  0.34627600  1
  Li  Li152  1  0.40594833  0.75922600  0.67960933  1
  Li  Li153  1  0.73928167  0.09255933  0.01294267  1
  Li  Li154  1  0.73928167  0.09255933  0.34627600  1
  Li  Li155  1  0.73928167  0.09255933  0.67960933  1
  Li  Li156  1  0.73928167  0.42589267  0.01294267  1
  Li  Li157  1  0.73928167  0.42589267  0.34627600  1
  Li  Li158  1  0.73928167  0.42589267  0.67960933  1
  Li  Li159  1  0.73928167  0.75922600  0.01294267  1
  Li  Li160  1  0.73928167  0.75922600  0.34627600  1
  Li  Li161  1  0.73928167  0.75922600  0.67960933  1
  Li  Li162  1  0.24823600  0.15203500  0.22365900  1
  Li  Li163  1  0.24823600  0.15203500  0.55699233  1
  Li  Li164  1  0.24823600  0.15203500  0.89032567  1
  Li  Li165  1  0.24823600  0.48536833  0.22365900  1
  Li  Li166  1  0.24823600  0.48536833  0.55699233  1
  Li  Li167  1  0.24823600  0.48536833  0.89032567  1
  Li  Li168  1  0.24823600  0.81870167  0.22365900  1
  Li  Li169  1  0.24823600  0.81870167  0.55699233  1
  Li  Li170  1  0.24823600  0.81870167  0.89032567  1
  Li  Li171  1  0.58156933  0.15203500  0.22365900  1
  Li  Li172  1  0.58156933  0.15203500  0.55699233  1
  Li  Li173  1  0.58156933  0.15203500  0.89032567  1
  Li  Li174  1  0.58156933  0.48536833  0.22365900  1
  Li  Li175  1  0.58156933  0.48536833  0.55699233  1
  Li  Li176  1  0.58156933  0.48536833  0.89032567  1
  Li  Li177  1  0.58156933  0.81870167  0.22365900  1
  Li  Li178  1  0.58156933  0.81870167  0.55699233  1
  Li  Li179  1  0.58156933  0.81870167  0.89032567  1
  Li  Li180  1  0.91490267  0.15203500  0.22365900  1
  Li  Li181  1  0.91490267  0.15203500  0.55699233  1
  Li  Li182  1  0.91490267  0.15203500  0.89032567  1
  Li  Li183  1  0.91490267  0.48536833  0.22365900  1
  Li  Li184  1  0.91490267  0.48536833  0.55699233  1
  Li  Li185  1  0.91490267  0.48536833  0.89032567  1
  Li  Li186  1  0.91490267  0.81870167  0.22365900  1
  Li  Li187  1  0.91490267  0.81870167  0.55699233  1
  Li  Li188  1  0.91490267  0.81870167  0.89032567  1
  Li  Li189  1  0.08509733  0.18129833  0.10967433  1
  Li  Li190  1  0.08509733  0.18129833  0.44300767  1
  Li  Li191  1  0.08509733  0.18129833  0.77634100  1
  Li  Li192  1  0.08509733  0.51463167  0.10967433  1
  Li  Li193  1  0.08509733  0.51463167  0.44300767  1
  Li  Li194  1  0.08509733  0.51463167  0.77634100  1
  Li  Li195  1  0.08509733  0.84796500  0.10967433  1
  Li  Li196  1  0.08509733  0.84796500  0.44300767  1
  Li  Li197  1  0.08509733  0.84796500  0.77634100  1
  Li  Li198  1  0.41843067  0.18129833  0.10967433  1
  Li  Li199  1  0.41843067  0.18129833  0.44300767  1
  Li  Li200  1  0.41843067  0.18129833  0.77634100  1
  Li  Li201  1  0.41843067  0.51463167  0.10967433  1
  Li  Li202  1  0.41843067  0.51463167  0.44300767  1
  Li  Li203  1  0.41843067  0.51463167  0.77634100  1
  Li  Li204  1  0.41843067  0.84796500  0.10967433  1
  Li  Li205  1  0.41843067  0.84796500  0.44300767  1
  Li  Li206  1  0.41843067  0.84796500  0.77634100  1
  Li  Li207  1  0.75176400  0.18129833  0.10967433  1
  Li  Li208  1  0.75176400  0.18129833  0.44300767  1
  Li  Li209  1  0.75176400  0.18129833  0.77634100  1
  Li  Li210  1  0.75176400  0.51463167  0.10967433  1
  Li  Li211  1  0.75176400  0.51463167  0.44300767  1
  Li  Li212  1  0.75176400  0.51463167  0.77634100  1
  Li  Li213  1  0.75176400  0.84796500  0.10967433  1
  Li  Li214  1  0.75176400  0.84796500  0.44300767  1
  Li  Li215  1  0.75176400  0.84796500  0.77634100  1
  Li  Li216  1  0.24672133  0.31345833  0.05755933  1
  Li  Li217  1  0.24672133  0.31345833  0.39089267  1
  Li  Li218  1  0.24672133  0.31345833  0.72422600  1
  Li  Li219  1  0.24672133  0.64679167  0.05755933  1
  Li  Li220  1  0.24672133  0.64679167  0.39089267  1
  Li  Li221  1  0.24672133  0.64679167  0.72422600  1
  Li  Li222  1  0.24672133  0.98012500  0.05755933  1
  Li  Li223  1  0.24672133  0.98012500  0.39089267  1
  Li  Li224  1  0.24672133  0.98012500  0.72422600  1
  Li  Li225  1  0.58005467  0.31345833  0.05755933  1
  Li  Li226  1  0.58005467  0.31345833  0.39089267  1
  Li  Li227  1  0.58005467  0.31345833  0.72422600  1
  Li  Li228  1  0.58005467  0.64679167  0.05755933  1
  Li  Li229  1  0.58005467  0.64679167  0.39089267  1
  Li  Li230  1  0.58005467  0.64679167  0.72422600  1
  Li  Li231  1  0.58005467  0.98012500  0.05755933  1
  Li  Li232  1  0.58005467  0.98012500  0.39089267  1
  Li  Li233  1  0.58005467  0.98012500  0.72422600  1
  Li  Li234  1  0.91338800  0.31345833  0.05755933  1
  Li  Li235  1  0.91338800  0.31345833  0.39089267  1
  Li  Li236  1  0.91338800  0.31345833  0.72422600  1
  Li  Li237  1  0.91338800  0.64679167  0.05755933  1
  Li  Li238  1  0.91338800  0.64679167  0.39089267  1
  Li  Li239  1  0.91338800  0.64679167  0.72422600  1
  Li  Li240  1  0.91338800  0.98012500  0.05755933  1
  Li  Li241  1  0.91338800  0.98012500  0.39089267  1
  Li  Li242  1  0.91338800  0.98012500  0.72422600  1
  Li  Li243  1  0.08661200  0.01987500  0.27577400  1
  Li  Li244  1  0.08661200  0.01987500  0.60910733  1
  Li  Li245  1  0.08661200  0.01987500  0.94244067  1
  Li  Li246  1  0.08661200  0.35320833  0.27577400  1
  Li  Li247  1  0.08661200  0.35320833  0.60910733  1
  Li  Li248  1  0.08661200  0.35320833  0.94244067  1
  Li  Li249  1  0.08661200  0.68654167  0.27577400  1
  Li  Li250  1  0.08661200  0.68654167  0.60910733  1
  Li  Li251  1  0.08661200  0.68654167  0.94244067  1
  Li  Li252  1  0.41994533  0.01987500  0.27577400  1
  Li  Li253  1  0.41994533  0.01987500  0.60910733  1
  Li  Li254  1  0.41994533  0.01987500  0.94244067  1
  Li  Li255  1  0.41994533  0.35320833  0.27577400  1
  Li  Li256  1  0.41994533  0.35320833  0.60910733  1
  Li  Li257  1  0.41994533  0.35320833  0.94244067  1
  Li  Li258  1  0.41994533  0.68654167  0.27577400  1
  Li  Li259  1  0.41994533  0.68654167  0.60910733  1
  Li  Li260  1  0.41994533  0.68654167  0.94244067  1
  Li  Li261  1  0.75327867  0.01987500  0.27577400  1
  Li  Li262  1  0.75327867  0.01987500  0.60910733  1
  Li  Li263  1  0.75327867  0.01987500  0.94244067  1
  Li  Li264  1  0.75327867  0.35320833  0.27577400  1
  Li  Li265  1  0.75327867  0.35320833  0.60910733  1
  Li  Li266  1  0.75327867  0.35320833  0.94244067  1
  Li  Li267  1  0.75327867  0.68654167  0.27577400  1
  Li  Li268  1  0.75327867  0.68654167  0.60910733  1
  Li  Li269  1  0.75327867  0.68654167  0.94244067  1
  Li  Li270  1  0.21221800  0.15264900  0.33016767  1
  Li  Li271  1  0.21221800  0.15264900  0.66350100  1
  Li  Li272  1  0.21221800  0.15264900  0.99683433  1
  Li  Li273  1  0.21221800  0.48598233  0.33016767  1
  Li  Li274  1  0.21221800  0.48598233  0.66350100  1
  Li  Li275  1  0.21221800  0.48598233  0.99683433  1
  Li  Li276  1  0.21221800  0.81931567  0.33016767  1
  Li  Li277  1  0.21221800  0.81931567  0.66350100  1
  Li  Li278  1  0.21221800  0.81931567  0.99683433  1
  Li  Li279  1  0.54555133  0.15264900  0.33016767  1
  Li  Li280  1  0.54555133  0.15264900  0.66350100  1
  Li  Li281  1  0.54555133  0.15264900  0.99683433  1
  Li  Li282  1  0.54555133  0.48598233  0.33016767  1
  Li  Li283  1  0.54555133  0.48598233  0.66350100  1
  Li  Li284  1  0.54555133  0.48598233  0.99683433  1
  Li  Li285  1  0.54555133  0.81931567  0.33016767  1
  Li  Li286  1  0.54555133  0.81931567  0.66350100  1
  Li  Li287  1  0.54555133  0.81931567  0.99683433  1
  Li  Li288  1  0.87888467  0.15264900  0.33016767  1
  Li  Li289  1  0.87888467  0.15264900  0.66350100  1
  Li  Li290  1  0.87888467  0.15264900  0.99683433  1
  Li  Li291  1  0.87888467  0.48598233  0.33016767  1
  Li  Li292  1  0.87888467  0.48598233  0.66350100  1
  Li  Li293  1  0.87888467  0.48598233  0.99683433  1
  Li  Li294  1  0.87888467  0.81931567  0.33016767  1
  Li  Li295  1  0.87888467  0.81931567  0.66350100  1
  Li  Li296  1  0.87888467  0.81931567  0.99683433  1
  Li  Li297  1  0.12111533  0.18068433  0.00316567  1
  Li  Li298  1  0.12111533  0.18068433  0.33649900  1
  Li  Li299  1  0.12111533  0.18068433  0.66983233  1
  Li  Li300  1  0.12111533  0.51401767  0.00316567  1
  Li  Li301  1  0.12111533  0.51401767  0.33649900  1
  Li  Li302  1  0.12111533  0.51401767  0.66983233  1
  Li  Li303  1  0.12111533  0.84735100  0.00316567  1
  Li  Li304  1  0.12111533  0.84735100  0.33649900  1
  Li  Li305  1  0.12111533  0.84735100  0.66983233  1
  Li  Li306  1  0.45444867  0.18068433  0.00316567  1
  Li  Li307  1  0.45444867  0.18068433  0.33649900  1
  Li  Li308  1  0.45444867  0.18068433  0.66983233  1
  Li  Li309  1  0.45444867  0.51401767  0.00316567  1
  Li  Li310  1  0.45444867  0.51401767  0.33649900  1
  Li  Li311  1  0.45444867  0.51401767  0.66983233  1
  Li  Li312  1  0.45444867  0.84735100  0.00316567  1
  Li  Li313  1  0.45444867  0.84735100  0.33649900  1
  Li  Li314  1  0.45444867  0.84735100  0.66983233  1
  Li  Li315  1  0.78778200  0.18068433  0.00316567  1
  Li  Li316  1  0.78778200  0.18068433  0.33649900  1
  Li  Li317  1  0.78778200  0.18068433  0.66983233  1
  Li  Li318  1  0.78778200  0.51401767  0.00316567  1
  Li  Li319  1  0.78778200  0.51401767  0.33649900  1
  Li  Li320  1  0.78778200  0.51401767  0.66983233  1
  Li  Li321  1  0.78778200  0.84735100  0.00316567  1
  Li  Li322  1  0.78778200  0.84735100  0.33649900  1
  Li  Li323  1  0.78778200  0.84735100  0.66983233  1
  Li  Li324  1  0.18812567  0.31941100  0.19518167  1
  Li  Li325  1  0.18812567  0.31941100  0.52851500  1
  Li  Li326  1  0.18812567  0.31941100  0.86184833  1
  Li  Li327  1  0.18812567  0.65274433  0.19518167  1
  Li  Li328  1  0.18812567  0.65274433  0.52851500  1
  Li  Li329  1  0.18812567  0.65274433  0.86184833  1
  Li  Li330  1  0.18812567  0.98607767  0.19518167  1
  Li  Li331  1  0.18812567  0.98607767  0.52851500  1
  Li  Li332  1  0.18812567  0.98607767  0.86184833  1
  Li  Li333  1  0.52145900  0.31941100  0.19518167  1
  Li  Li334  1  0.52145900  0.31941100  0.52851500  1
  Li  Li335  1  0.52145900  0.31941100  0.86184833  1
  Li  Li336  1  0.52145900  0.65274433  0.19518167  1
  Li  Li337  1  0.52145900  0.65274433  0.52851500  1
  Li  Li338  1  0.52145900  0.65274433  0.86184833  1
  Li  Li339  1  0.52145900  0.98607767  0.19518167  1
  Li  Li340  1  0.52145900  0.98607767  0.52851500  1
  Li  Li341  1  0.52145900  0.98607767  0.86184833  1
  Li  Li342  1  0.85479233  0.31941100  0.19518167  1
  Li  Li343  1  0.85479233  0.31941100  0.52851500  1
  Li  Li344  1  0.85479233  0.31941100  0.86184833  1
  Li  Li345  1  0.85479233  0.65274433  0.19518167  1
  Li  Li346  1  0.85479233  0.65274433  0.52851500  1
  Li  Li347  1  0.85479233  0.65274433  0.86184833  1
  Li  Li348  1  0.85479233  0.98607767  0.19518167  1
  Li  Li349  1  0.85479233  0.98607767  0.52851500  1
  Li  Li350  1  0.85479233  0.98607767  0.86184833  1
  Li  Li351  1  0.14520767  0.01392233  0.13815167  1
  Li  Li352  1  0.14520767  0.01392233  0.47148500  1
  Li  Li353  1  0.14520767  0.01392233  0.80481833  1
  Li  Li354  1  0.14520767  0.34725567  0.13815167  1
  Li  Li355  1  0.14520767  0.34725567  0.47148500  1
  Li  Li356  1  0.14520767  0.34725567  0.80481833  1
  Li  Li357  1  0.14520767  0.68058900  0.13815167  1
  Li  Li358  1  0.14520767  0.68058900  0.47148500  1
  Li  Li359  1  0.14520767  0.68058900  0.80481833  1
  Li  Li360  1  0.47854100  0.01392233  0.13815167  1
  Li  Li361  1  0.47854100  0.01392233  0.47148500  1
  Li  Li362  1  0.47854100  0.01392233  0.80481833  1
  Li  Li363  1  0.47854100  0.34725567  0.13815167  1
  Li  Li364  1  0.47854100  0.34725567  0.47148500  1
  Li  Li365  1  0.47854100  0.34725567  0.80481833  1
  Li  Li366  1  0.47854100  0.68058900  0.13815167  1
  Li  Li367  1  0.47854100  0.68058900  0.47148500  1
  Li  Li368  1  0.47854100  0.68058900  0.80481833  1
  Li  Li369  1  0.81187433  0.01392233  0.13815167  1
  Li  Li370  1  0.81187433  0.01392233  0.47148500  1
  Li  Li371  1  0.81187433  0.01392233  0.80481833  1
  Li  Li372  1  0.81187433  0.34725567  0.13815167  1
  Li  Li373  1  0.81187433  0.34725567  0.47148500  1
  Li  Li374  1  0.81187433  0.34725567  0.80481833  1
  Li  Li375  1  0.81187433  0.68058900  0.13815167  1
  Li  Li376  1  0.81187433  0.68058900  0.47148500  1
  Li  Li377  1  0.81187433  0.68058900  0.80481833  1
  Li  Li378  1  0.07906700  0.27674233  0.20129400  1
  Li  Li379  1  0.07906700  0.27674233  0.53462733  1
  Li  Li380  1  0.07906700  0.27674233  0.86796067  1
  Li  Li381  1  0.07906700  0.61007567  0.20129400  1
  Li  Li382  1  0.07906700  0.61007567  0.53462733  1
  Li  Li383  1  0.07906700  0.61007567  0.86796067  1
  Li  Li384  1  0.07906700  0.94340900  0.20129400  1
  Li  Li385  1  0.07906700  0.94340900  0.53462733  1
  Li  Li386  1  0.07906700  0.94340900  0.86796067  1
  Li  Li387  1  0.41240033  0.27674233  0.20129400  1
  Li  Li388  1  0.41240033  0.27674233  0.53462733  1
  Li  Li389  1  0.41240033  0.27674233  0.86796067  1
  Li  Li390  1  0.41240033  0.61007567  0.20129400  1
  Li  Li391  1  0.41240033  0.61007567  0.53462733  1
  Li  Li392  1  0.41240033  0.61007567  0.86796067  1
  Li  Li393  1  0.41240033  0.94340900  0.20129400  1
  Li  Li394  1  0.41240033  0.94340900  0.53462733  1
  Li  Li395  1  0.41240033  0.94340900  0.86796067  1
  Li  Li396  1  0.74573367  0.27674233  0.20129400  1
  Li  Li397  1  0.74573367  0.27674233  0.53462733  1
  Li  Li398  1  0.74573367  0.27674233  0.86796067  1
  Li  Li399  1  0.74573367  0.61007567  0.20129400  1
  Li  Li400  1  0.74573367  0.61007567  0.53462733  1
  Li  Li401  1  0.74573367  0.61007567  0.86796067  1
  Li  Li402  1  0.74573367  0.94340900  0.20129400  1
  Li  Li403  1  0.74573367  0.94340900  0.53462733  1
  Li  Li404  1  0.74573367  0.94340900  0.86796067  1
  Li  Li405  1  0.25426633  0.05659100  0.13203933  1
  Li  Li406  1  0.25426633  0.05659100  0.46537267  1
  Li  Li407  1  0.25426633  0.05659100  0.79870600  1
  Li  Li408  1  0.25426633  0.38992433  0.13203933  1
  Li  Li409  1  0.25426633  0.38992433  0.46537267  1
  Li  Li410  1  0.25426633  0.38992433  0.79870600  1
  Li  Li411  1  0.25426633  0.72325767  0.13203933  1
  Li  Li412  1  0.25426633  0.72325767  0.46537267  1
  Li  Li413  1  0.25426633  0.72325767  0.79870600  1
  Li  Li414  1  0.58759967  0.05659100  0.13203933  1
  Li  Li415  1  0.58759967  0.05659100  0.46537267  1
  Li  Li416  1  0.58759967  0.05659100  0.79870600  1
  Li  Li417  1  0.58759967  0.38992433  0.13203933  1
  Li  Li418  1  0.58759967  0.38992433  0.46537267  1
  Li  Li419  1  0.58759967  0.38992433  0.79870600  1
  Li  Li420  1  0.58759967  0.72325767  0.13203933  1
  Li  Li421  1  0.58759967  0.72325767  0.46537267  1
  Li  Li422  1  0.58759967  0.72325767  0.79870600  1
  Li  Li423  1  0.92093300  0.05659100  0.13203933  1
  Li  Li424  1  0.92093300  0.05659100  0.46537267  1
  Li  Li425  1  0.92093300  0.05659100  0.79870600  1
  Li  Li426  1  0.92093300  0.38992433  0.13203933  1
  Li  Li427  1  0.92093300  0.38992433  0.46537267  1
  Li  Li428  1  0.92093300  0.38992433  0.79870600  1
  Li  Li429  1  0.92093300  0.72325767  0.13203933  1
  Li  Li430  1  0.92093300  0.72325767  0.46537267  1
  Li  Li431  1  0.92093300  0.72325767  0.79870600  1
  B  B432  1  0.31720067  0.22441000  0.20210000  1
  B  B433  1  0.31720067  0.22441000  0.53543333  1
  B  B434  1  0.31720067  0.22441000  0.86876667  1
  B  B435  1  0.31720067  0.55774333  0.20210000  1
  B  B436  1  0.31720067  0.55774333  0.53543333  1
  B  B437  1  0.31720067  0.55774333  0.86876667  1
  B  B438  1  0.31720067  0.89107667  0.20210000  1
  B  B439  1  0.31720067  0.89107667  0.53543333  1
  B  B440  1  0.31720067  0.89107667  0.86876667  1
  B  B441  1  0.65053400  0.22441000  0.20210000  1
  B  B442  1  0.65053400  0.22441000  0.53543333  1
  B  B443  1  0.65053400  0.22441000  0.86876667  1
  B  B444  1  0.65053400  0.55774333  0.20210000  1
  B  B445  1  0.65053400  0.55774333  0.53543333  1
  B  B446  1  0.65053400  0.55774333  0.86876667  1
  B  B447  1  0.65053400  0.89107667  0.20210000  1
  B  B448  1  0.65053400  0.89107667  0.53543333  1
  B  B449  1  0.65053400  0.89107667  0.86876667  1
  B  B450  1  0.98386733  0.22441000  0.20210000  1
  B  B451  1  0.98386733  0.22441000  0.53543333  1
  B  B452  1  0.98386733  0.22441000  0.86876667  1
  B  B453  1  0.98386733  0.55774333  0.20210000  1
  B  B454  1  0.98386733  0.55774333  0.53543333  1
  B  B455  1  0.98386733  0.55774333  0.86876667  1
  B  B456  1  0.98386733  0.89107667  0.20210000  1
  B  B457  1  0.98386733  0.89107667  0.53543333  1
  B  B458  1  0.98386733  0.89107667  0.86876667  1
  B  B459  1  0.01613267  0.10892333  0.13123333  1
  B  B460  1  0.01613267  0.10892333  0.46456667  1
  B  B461  1  0.01613267  0.10892333  0.79790000  1
  B  B462  1  0.01613267  0.44225667  0.13123333  1
  B  B463  1  0.01613267  0.44225667  0.46456667  1
  B  B464  1  0.01613267  0.44225667  0.79790000  1
  B  B465  1  0.01613267  0.77559000  0.13123333  1
  B  B466  1  0.01613267  0.77559000  0.46456667  1
  B  B467  1  0.01613267  0.77559000  0.79790000  1
  B  B468  1  0.34946600  0.10892333  0.13123333  1
  B  B469  1  0.34946600  0.10892333  0.46456667  1
  B  B470  1  0.34946600  0.10892333  0.79790000  1
  B  B471  1  0.34946600  0.44225667  0.13123333  1
  B  B472  1  0.34946600  0.44225667  0.46456667  1
  B  B473  1  0.34946600  0.44225667  0.79790000  1
  B  B474  1  0.34946600  0.77559000  0.13123333  1
  B  B475  1  0.34946600  0.77559000  0.46456667  1
  B  B476  1  0.34946600  0.77559000  0.79790000  1
  B  B477  1  0.68279933  0.10892333  0.13123333  1
  B  B478  1  0.68279933  0.10892333  0.46456667  1
  B  B479  1  0.68279933  0.10892333  0.79790000  1
  B  B480  1  0.68279933  0.44225667  0.13123333  1
  B  B481  1  0.68279933  0.44225667  0.46456667  1
  B  B482  1  0.68279933  0.44225667  0.79790000  1
  B  B483  1  0.68279933  0.77559000  0.13123333  1
  B  B484  1  0.68279933  0.77559000  0.46456667  1
  B  B485  1  0.68279933  0.77559000  0.79790000  1
  B  B486  1  0.29366867  0.29655400  0.19134400  1
  B  B487  1  0.29366867  0.29655400  0.52467733  1
  B  B488  1  0.29366867  0.29655400  0.85801067  1
  B  B489  1  0.29366867  0.62988733  0.19134400  1
  B  B490  1  0.29366867  0.62988733  0.52467733  1
  B  B491  1  0.29366867  0.62988733  0.85801067  1
  B  B492  1  0.29366867  0.96322067  0.19134400  1
  B  B493  1  0.29366867  0.96322067  0.52467733  1
  B  B494  1  0.29366867  0.96322067  0.85801067  1
  B  B495  1  0.62700200  0.29655400  0.19134400  1
  B  B496  1  0.62700200  0.29655400  0.52467733  1
  B  B497  1  0.62700200  0.29655400  0.85801067  1
  B  B498  1  0.62700200  0.62988733  0.19134400  1
  B  B499  1  0.62700200  0.62988733  0.52467733  1
  B  B500  1  0.62700200  0.62988733  0.85801067  1
  B  B501  1  0.62700200  0.96322067  0.19134400  1
  B  B502  1  0.62700200  0.96322067  0.52467733  1
  B  B503  1  0.62700200  0.96322067  0.85801067  1
  B  B504  1  0.96033533  0.29655400  0.19134400  1
  B  B505  1  0.96033533  0.29655400  0.52467733  1
  B  B506  1  0.96033533  0.29655400  0.85801067  1
  B  B507  1  0.96033533  0.62988733  0.19134400  1
  B  B508  1  0.96033533  0.62988733  0.52467733  1
  B  B509  1  0.96033533  0.62988733  0.85801067  1
  B  B510  1  0.96033533  0.96322067  0.19134400  1
  B  B511  1  0.96033533  0.96322067  0.52467733  1
  B  B512  1  0.96033533  0.96322067  0.85801067  1
  B  B513  1  0.03966467  0.03677933  0.14198933  1
  B  B514  1  0.03966467  0.03677933  0.47532267  1
  B  B515  1  0.03966467  0.03677933  0.80865600  1
  B  B516  1  0.03966467  0.37011267  0.14198933  1
  B  B517  1  0.03966467  0.37011267  0.47532267  1
  B  B518  1  0.03966467  0.37011267  0.80865600  1
  B  B519  1  0.03966467  0.70344600  0.14198933  1
  B  B520  1  0.03966467  0.70344600  0.47532267  1
  B  B521  1  0.03966467  0.70344600  0.80865600  1
  B  B522  1  0.37299800  0.03677933  0.14198933  1
  B  B523  1  0.37299800  0.03677933  0.47532267  1
  B  B524  1  0.37299800  0.03677933  0.80865600  1
  B  B525  1  0.37299800  0.37011267  0.14198933  1
  B  B526  1  0.37299800  0.37011267  0.47532267  1
  B  B527  1  0.37299800  0.37011267  0.80865600  1
  B  B528  1  0.37299800  0.70344600  0.14198933  1
  B  B529  1  0.37299800  0.70344600  0.47532267  1
  B  B530  1  0.37299800  0.70344600  0.80865600  1
  B  B531  1  0.70633133  0.03677933  0.14198933  1
  B  B532  1  0.70633133  0.03677933  0.47532267  1
  B  B533  1  0.70633133  0.03677933  0.80865600  1
  B  B534  1  0.70633133  0.37011267  0.14198933  1
  B  B535  1  0.70633133  0.37011267  0.47532267  1
  B  B536  1  0.70633133  0.37011267  0.80865600  1
  B  B537  1  0.70633133  0.70344600  0.14198933  1
  B  B538  1  0.70633133  0.70344600  0.47532267  1
  B  B539  1  0.70633133  0.70344600  0.80865600  1
  B  B540  1  0.26988833  0.32949533  0.28499233  1
  B  B541  1  0.26988833  0.32949533  0.61832567  1
  B  B542  1  0.26988833  0.32949533  0.95165900  1
  B  B543  1  0.26988833  0.66282867  0.28499233  1
  B  B544  1  0.26988833  0.66282867  0.61832567  1
  B  B545  1  0.26988833  0.66282867  0.95165900  1
  B  B546  1  0.26988833  0.99616200  0.28499233  1
  B  B547  1  0.26988833  0.99616200  0.61832567  1
  B  B548  1  0.26988833  0.99616200  0.95165900  1
  B  B549  1  0.60322167  0.32949533  0.28499233  1
  B  B550  1  0.60322167  0.32949533  0.61832567  1
  B  B551  1  0.60322167  0.32949533  0.95165900  1
  B  B552  1  0.60322167  0.66282867  0.28499233  1
  B  B553  1  0.60322167  0.66282867  0.61832567  1
  B  B554  1  0.60322167  0.66282867  0.95165900  1
  B  B555  1  0.60322167  0.99616200  0.28499233  1
  B  B556  1  0.60322167  0.99616200  0.61832567  1
  B  B557  1  0.60322167  0.99616200  0.95165900  1
  B  B558  1  0.93655500  0.32949533  0.28499233  1
  B  B559  1  0.93655500  0.32949533  0.61832567  1
  B  B560  1  0.93655500  0.32949533  0.95165900  1
  B  B561  1  0.93655500  0.66282867  0.28499233  1
  B  B562  1  0.93655500  0.66282867  0.61832567  1
  B  B563  1  0.93655500  0.66282867  0.95165900  1
  B  B564  1  0.93655500  0.99616200  0.28499233  1
  B  B565  1  0.93655500  0.99616200  0.61832567  1
  B  B566  1  0.93655500  0.99616200  0.95165900  1
  B  B567  1  0.06344500  0.00383800  0.04834100  1
  B  B568  1  0.06344500  0.00383800  0.38167433  1
  B  B569  1  0.06344500  0.00383800  0.71500767  1
  B  B570  1  0.06344500  0.33717133  0.04834100  1
  B  B571  1  0.06344500  0.33717133  0.38167433  1
  B  B572  1  0.06344500  0.33717133  0.71500767  1
  B  B573  1  0.06344500  0.67050467  0.04834100  1
  B  B574  1  0.06344500  0.67050467  0.38167433  1
  B  B575  1  0.06344500  0.67050467  0.71500767  1
  B  B576  1  0.39677833  0.00383800  0.04834100  1
  B  B577  1  0.39677833  0.00383800  0.38167433  1
  B  B578  1  0.39677833  0.00383800  0.71500767  1
  B  B579  1  0.39677833  0.33717133  0.04834100  1
  B  B580  1  0.39677833  0.33717133  0.38167433  1
  B  B581  1  0.39677833  0.33717133  0.71500767  1
  B  B582  1  0.39677833  0.67050467  0.04834100  1
  B  B583  1  0.39677833  0.67050467  0.38167433  1
  B  B584  1  0.39677833  0.67050467  0.71500767  1
  B  B585  1  0.73011167  0.00383800  0.04834100  1
  B  B586  1  0.73011167  0.00383800  0.38167433  1
  B  B587  1  0.73011167  0.00383800  0.71500767  1
  B  B588  1  0.73011167  0.33717133  0.04834100  1
  B  B589  1  0.73011167  0.33717133  0.38167433  1
  B  B590  1  0.73011167  0.33717133  0.71500767  1
  B  B591  1  0.73011167  0.67050467  0.04834100  1
  B  B592  1  0.73011167  0.67050467  0.38167433  1
  B  B593  1  0.73011167  0.67050467  0.71500767  1
  B  B594  1  0.26650967  0.14841633  0.12882300  1
  B  B595  1  0.26650967  0.14841633  0.46215633  1
  B  B596  1  0.26650967  0.14841633  0.79548967  1
  B  B597  1  0.26650967  0.48174967  0.12882300  1
  B  B598  1  0.26650967  0.48174967  0.46215633  1
  B  B599  1  0.26650967  0.48174967  0.79548967  1
  B  B600  1  0.26650967  0.81508300  0.12882300  1
  B  B601  1  0.26650967  0.81508300  0.46215633  1
  B  B602  1  0.26650967  0.81508300  0.79548967  1
  B  B603  1  0.59984300  0.14841633  0.12882300  1
  B  B604  1  0.59984300  0.14841633  0.46215633  1
  B  B605  1  0.59984300  0.14841633  0.79548967  1
  B  B606  1  0.59984300  0.48174967  0.12882300  1
  B  B607  1  0.59984300  0.48174967  0.46215633  1
  B  B608  1  0.59984300  0.48174967  0.79548967  1
  B  B609  1  0.59984300  0.81508300  0.12882300  1
  B  B610  1  0.59984300  0.81508300  0.46215633  1
  B  B611  1  0.59984300  0.81508300  0.79548967  1
  B  B612  1  0.93317633  0.14841633  0.12882300  1
  B  B613  1  0.93317633  0.14841633  0.46215633  1
  B  B614  1  0.93317633  0.14841633  0.79548967  1
  B  B615  1  0.93317633  0.48174967  0.12882300  1
  B  B616  1  0.93317633  0.48174967  0.46215633  1
  B  B617  1  0.93317633  0.48174967  0.79548967  1
  B  B618  1  0.93317633  0.81508300  0.12882300  1
  B  B619  1  0.93317633  0.81508300  0.46215633  1
  B  B620  1  0.93317633  0.81508300  0.79548967  1
  B  B621  1  0.06682367  0.18491700  0.20451033  1
  B  B622  1  0.06682367  0.18491700  0.53784367  1
  B  B623  1  0.06682367  0.18491700  0.87117700  1
  B  B624  1  0.06682367  0.51825033  0.20451033  1
  B  B625  1  0.06682367  0.51825033  0.53784367  1
  B  B626  1  0.06682367  0.51825033  0.87117700  1
  B  B627  1  0.06682367  0.85158367  0.20451033  1
  B  B628  1  0.06682367  0.85158367  0.53784367  1
  B  B629  1  0.06682367  0.85158367  0.87117700  1
  B  B630  1  0.40015700  0.18491700  0.20451033  1
  B  B631  1  0.40015700  0.18491700  0.53784367  1
  B  B632  1  0.40015700  0.18491700  0.87117700  1
  B  B633  1  0.40015700  0.51825033  0.20451033  1
  B  B634  1  0.40015700  0.51825033  0.53784367  1
  B  B635  1  0.40015700  0.51825033  0.87117700  1
  B  B636  1  0.40015700  0.85158367  0.20451033  1
  B  B637  1  0.40015700  0.85158367  0.53784367  1
  B  B638  1  0.40015700  0.85158367  0.87117700  1
  B  B639  1  0.73349033  0.18491700  0.20451033  1
  B  B640  1  0.73349033  0.18491700  0.53784367  1
  B  B641  1  0.73349033  0.18491700  0.87117700  1
  B  B642  1  0.73349033  0.51825033  0.20451033  1
  B  B643  1  0.73349033  0.51825033  0.53784367  1
  B  B644  1  0.73349033  0.51825033  0.87117700  1
  B  B645  1  0.73349033  0.85158367  0.20451033  1
  B  B646  1  0.73349033  0.85158367  0.53784367  1
  B  B647  1  0.73349033  0.85158367  0.87117700  1
  B  B648  1  0.23289300  0.24650133  0.21597967  1
  B  B649  1  0.23289300  0.24650133  0.54931300  1
  B  B650  1  0.23289300  0.24650133  0.88264633  1
  B  B651  1  0.23289300  0.57983467  0.21597967  1
  B  B652  1  0.23289300  0.57983467  0.54931300  1
  B  B653  1  0.23289300  0.57983467  0.88264633  1
  B  B654  1  0.23289300  0.91316800  0.21597967  1
  B  B655  1  0.23289300  0.91316800  0.54931300  1
  B  B656  1  0.23289300  0.91316800  0.88264633  1
  B  B657  1  0.56622633  0.24650133  0.21597967  1
  B  B658  1  0.56622633  0.24650133  0.54931300  1
  B  B659  1  0.56622633  0.24650133  0.88264633  1
  B  B660  1  0.56622633  0.57983467  0.21597967  1
  B  B661  1  0.56622633  0.57983467  0.54931300  1
  B  B662  1  0.56622633  0.57983467  0.88264633  1
  B  B663  1  0.56622633  0.91316800  0.21597967  1
  B  B664  1  0.56622633  0.91316800  0.54931300  1
  B  B665  1  0.56622633  0.91316800  0.88264633  1
  B  B666  1  0.89955967  0.24650133  0.21597967  1
  B  B667  1  0.89955967  0.24650133  0.54931300  1
  B  B668  1  0.89955967  0.24650133  0.88264633  1
  B  B669  1  0.89955967  0.57983467  0.21597967  1
  B  B670  1  0.89955967  0.57983467  0.54931300  1
  B  B671  1  0.89955967  0.57983467  0.88264633  1
  B  B672  1  0.89955967  0.91316800  0.21597967  1
  B  B673  1  0.89955967  0.91316800  0.54931300  1
  B  B674  1  0.89955967  0.91316800  0.88264633  1
  B  B675  1  0.10044033  0.08683200  0.11735367  1
  B  B676  1  0.10044033  0.08683200  0.45068700  1
  B  B677  1  0.10044033  0.08683200  0.78402033  1
  B  B678  1  0.10044033  0.42016533  0.11735367  1
  B  B679  1  0.10044033  0.42016533  0.45068700  1
  B  B680  1  0.10044033  0.42016533  0.78402033  1
  B  B681  1  0.10044033  0.75349867  0.11735367  1
  B  B682  1  0.10044033  0.75349867  0.45068700  1
  B  B683  1  0.10044033  0.75349867  0.78402033  1
  B  B684  1  0.43377367  0.08683200  0.11735367  1
  B  B685  1  0.43377367  0.08683200  0.45068700  1
  B  B686  1  0.43377367  0.08683200  0.78402033  1
  B  B687  1  0.43377367  0.42016533  0.11735367  1
  B  B688  1  0.43377367  0.42016533  0.45068700  1
  B  B689  1  0.43377367  0.42016533  0.78402033  1
  B  B690  1  0.43377367  0.75349867  0.11735367  1
  B  B691  1  0.43377367  0.75349867  0.45068700  1
  B  B692  1  0.43377367  0.75349867  0.78402033  1
  B  B693  1  0.76710700  0.08683200  0.11735367  1
  B  B694  1  0.76710700  0.08683200  0.45068700  1
  B  B695  1  0.76710700  0.08683200  0.78402033  1
  B  B696  1  0.76710700  0.42016533  0.11735367  1
  B  B697  1  0.76710700  0.42016533  0.45068700  1
  B  B698  1  0.76710700  0.42016533  0.78402033  1
  B  B699  1  0.76710700  0.75349867  0.11735367  1
  B  B700  1  0.76710700  0.75349867  0.45068700  1
  B  B701  1  0.76710700  0.75349867  0.78402033  1
  B  B702  1  0.20213833  0.20167033  0.11749567  1
  B  B703  1  0.20213833  0.20167033  0.45082900  1
  B  B704  1  0.20213833  0.20167033  0.78416233  1
  B  B705  1  0.20213833  0.53500367  0.11749567  1
  B  B706  1  0.20213833  0.53500367  0.45082900  1
  B  B707  1  0.20213833  0.53500367  0.78416233  1
  B  B708  1  0.20213833  0.86833700  0.11749567  1
  B  B709  1  0.20213833  0.86833700  0.45082900  1
  B  B710  1  0.20213833  0.86833700  0.78416233  1
  B  B711  1  0.53547167  0.20167033  0.11749567  1
  B  B712  1  0.53547167  0.20167033  0.45082900  1
  B  B713  1  0.53547167  0.20167033  0.78416233  1
  B  B714  1  0.53547167  0.53500367  0.11749567  1
  B  B715  1  0.53547167  0.53500367  0.45082900  1
  B  B716  1  0.53547167  0.53500367  0.78416233  1
  B  B717  1  0.53547167  0.86833700  0.11749567  1
  B  B718  1  0.53547167  0.86833700  0.45082900  1
  B  B719  1  0.53547167  0.86833700  0.78416233  1
  B  B720  1  0.86880500  0.20167033  0.11749567  1
  B  B721  1  0.86880500  0.20167033  0.45082900  1
  B  B722  1  0.86880500  0.20167033  0.78416233  1
  B  B723  1  0.86880500  0.53500367  0.11749567  1
  B  B724  1  0.86880500  0.53500367  0.45082900  1
  B  B725  1  0.86880500  0.53500367  0.78416233  1
  B  B726  1  0.86880500  0.86833700  0.11749567  1
  B  B727  1  0.86880500  0.86833700  0.45082900  1
  B  B728  1  0.86880500  0.86833700  0.78416233  1
  B  B729  1  0.13119500  0.13166300  0.21583767  1
  B  B730  1  0.13119500  0.13166300  0.54917100  1
  B  B731  1  0.13119500  0.13166300  0.88250433  1
  B  B732  1  0.13119500  0.46499633  0.21583767  1
  B  B733  1  0.13119500  0.46499633  0.54917100  1
  B  B734  1  0.13119500  0.46499633  0.88250433  1
  B  B735  1  0.13119500  0.79832967  0.21583767  1
  B  B736  1  0.13119500  0.79832967  0.54917100  1
  B  B737  1  0.13119500  0.79832967  0.88250433  1
  B  B738  1  0.46452833  0.13166300  0.21583767  1
  B  B739  1  0.46452833  0.13166300  0.54917100  1
  B  B740  1  0.46452833  0.13166300  0.88250433  1
  B  B741  1  0.46452833  0.46499633  0.21583767  1
  B  B742  1  0.46452833  0.46499633  0.54917100  1
  B  B743  1  0.46452833  0.46499633  0.88250433  1
  B  B744  1  0.46452833  0.79832967  0.21583767  1
  B  B745  1  0.46452833  0.79832967  0.54917100  1
  B  B746  1  0.46452833  0.79832967  0.88250433  1
  B  B747  1  0.79786167  0.13166300  0.21583767  1
  B  B748  1  0.79786167  0.13166300  0.54917100  1
  B  B749  1  0.79786167  0.13166300  0.88250433  1
  B  B750  1  0.79786167  0.46499633  0.21583767  1
  B  B751  1  0.79786167  0.46499633  0.54917100  1
  B  B752  1  0.79786167  0.46499633  0.88250433  1
  B  B753  1  0.79786167  0.79832967  0.21583767  1
  B  B754  1  0.79786167  0.79832967  0.54917100  1
  B  B755  1  0.79786167  0.79832967  0.88250433  1
  B  B756  1  0.18450367  0.30461633  0.29291833  1
  B  B757  1  0.18450367  0.30461633  0.62625167  1
  B  B758  1  0.18450367  0.30461633  0.95958500  1
  B  B759  1  0.18450367  0.63794967  0.29291833  1
  B  B760  1  0.18450367  0.63794967  0.62625167  1
  B  B761  1  0.18450367  0.63794967  0.95958500  1
  B  B762  1  0.18450367  0.97128300  0.29291833  1
  B  B763  1  0.18450367  0.97128300  0.62625167  1
  B  B764  1  0.18450367  0.97128300  0.95958500  1
  B  B765  1  0.51783700  0.30461633  0.29291833  1
  B  B766  1  0.51783700  0.30461633  0.62625167  1
  B  B767  1  0.51783700  0.30461633  0.95958500  1
  B  B768  1  0.51783700  0.63794967  0.29291833  1
  B  B769  1  0.51783700  0.63794967  0.62625167  1
  B  B770  1  0.51783700  0.63794967  0.95958500  1
  B  B771  1  0.51783700  0.97128300  0.29291833  1
  B  B772  1  0.51783700  0.97128300  0.62625167  1
  B  B773  1  0.51783700  0.97128300  0.95958500  1
  B  B774  1  0.85117033  0.30461633  0.29291833  1
  B  B775  1  0.85117033  0.30461633  0.62625167  1
  B  B776  1  0.85117033  0.30461633  0.95958500  1
  B  B777  1  0.85117033  0.63794967  0.29291833  1
  B  B778  1  0.85117033  0.63794967  0.62625167  1
  B  B779  1  0.85117033  0.63794967  0.95958500  1
  B  B780  1  0.85117033  0.97128300  0.29291833  1
  B  B781  1  0.85117033  0.97128300  0.62625167  1
  B  B782  1  0.85117033  0.97128300  0.95958500  1
  B  B783  1  0.14882967  0.02871700  0.04041500  1
  B  B784  1  0.14882967  0.02871700  0.37374833  1
  B  B785  1  0.14882967  0.02871700  0.70708167  1
  B  B786  1  0.14882967  0.36205033  0.04041500  1
  B  B787  1  0.14882967  0.36205033  0.37374833  1
  B  B788  1  0.14882967  0.36205033  0.70708167  1
  B  B789  1  0.14882967  0.69538367  0.04041500  1
  B  B790  1  0.14882967  0.69538367  0.37374833  1
  B  B791  1  0.14882967  0.69538367  0.70708167  1
  B  B792  1  0.48216300  0.02871700  0.04041500  1
  B  B793  1  0.48216300  0.02871700  0.37374833  1
  B  B794  1  0.48216300  0.02871700  0.70708167  1
  B  B795  1  0.48216300  0.36205033  0.04041500  1
  B  B796  1  0.48216300  0.36205033  0.37374833  1
  B  B797  1  0.48216300  0.36205033  0.70708167  1
  B  B798  1  0.48216300  0.69538367  0.04041500  1
  B  B799  1  0.48216300  0.69538367  0.37374833  1
  B  B800  1  0.48216300  0.69538367  0.70708167  1
  B  B801  1  0.81549633  0.02871700  0.04041500  1
  B  B802  1  0.81549633  0.02871700  0.37374833  1
  B  B803  1  0.81549633  0.02871700  0.70708167  1
  B  B804  1  0.81549633  0.36205033  0.04041500  1
  B  B805  1  0.81549633  0.36205033  0.37374833  1
  B  B806  1  0.81549633  0.36205033  0.70708167  1
  B  B807  1  0.81549633  0.69538367  0.04041500  1
  B  B808  1  0.81549633  0.69538367  0.37374833  1
  B  B809  1  0.81549633  0.69538367  0.70708167  1
  B  B810  1  0.15202367  0.20597133  0.22006833  1
  B  B811  1  0.15202367  0.20597133  0.55340167  1
  B  B812  1  0.15202367  0.20597133  0.88673500  1
  B  B813  1  0.15202367  0.53930467  0.22006833  1
  B  B814  1  0.15202367  0.53930467  0.55340167  1
  B  B815  1  0.15202367  0.53930467  0.88673500  1
  B  B816  1  0.15202367  0.87263800  0.22006833  1
  B  B817  1  0.15202367  0.87263800  0.55340167  1
  B  B818  1  0.15202367  0.87263800  0.88673500  1
  B  B819  1  0.48535700  0.20597133  0.22006833  1
  B  B820  1  0.48535700  0.20597133  0.55340167  1
  B  B821  1  0.48535700  0.20597133  0.88673500  1
  B  B822  1  0.48535700  0.53930467  0.22006833  1
  B  B823  1  0.48535700  0.53930467  0.55340167  1
  B  B824  1  0.48535700  0.53930467  0.88673500  1
  B  B825  1  0.48535700  0.87263800  0.22006833  1
  B  B826  1  0.48535700  0.87263800  0.55340167  1
  B  B827  1  0.48535700  0.87263800  0.88673500  1
  B  B828  1  0.81869033  0.20597133  0.22006833  1
  B  B829  1  0.81869033  0.20597133  0.55340167  1
  B  B830  1  0.81869033  0.20597133  0.88673500  1
  B  B831  1  0.81869033  0.53930467  0.22006833  1
  B  B832  1  0.81869033  0.53930467  0.55340167  1
  B  B833  1  0.81869033  0.53930467  0.88673500  1
  B  B834  1  0.81869033  0.87263800  0.22006833  1
  B  B835  1  0.81869033  0.87263800  0.55340167  1
  B  B836  1  0.81869033  0.87263800  0.88673500  1
  B  B837  1  0.18130967  0.12736200  0.11326500  1
  B  B838  1  0.18130967  0.12736200  0.44659833  1
  B  B839  1  0.18130967  0.12736200  0.77993167  1
  B  B840  1  0.18130967  0.46069533  0.11326500  1
  B  B841  1  0.18130967  0.46069533  0.44659833  1
  B  B842  1  0.18130967  0.46069533  0.77993167  1
  B  B843  1  0.18130967  0.79402867  0.11326500  1
  B  B844  1  0.18130967  0.79402867  0.44659833  1
  B  B845  1  0.18130967  0.79402867  0.77993167  1
  B  B846  1  0.51464300  0.12736200  0.11326500  1
  B  B847  1  0.51464300  0.12736200  0.44659833  1
  B  B848  1  0.51464300  0.12736200  0.77993167  1
  B  B849  1  0.51464300  0.46069533  0.11326500  1
  B  B850  1  0.51464300  0.46069533  0.44659833  1
  B  B851  1  0.51464300  0.46069533  0.77993167  1
  B  B852  1  0.51464300  0.79402867  0.11326500  1
  B  B853  1  0.51464300  0.79402867  0.44659833  1
  B  B854  1  0.51464300  0.79402867  0.77993167  1
  B  B855  1  0.84797633  0.12736200  0.11326500  1
  B  B856  1  0.84797633  0.12736200  0.44659833  1
  B  B857  1  0.84797633  0.12736200  0.77993167  1
  B  B858  1  0.84797633  0.46069533  0.11326500  1
  B  B859  1  0.84797633  0.46069533  0.44659833  1
  B  B860  1  0.84797633  0.46069533  0.77993167  1
  B  B861  1  0.84797633  0.79402867  0.11326500  1
  B  B862  1  0.84797633  0.79402867  0.44659833  1
  B  B863  1  0.84797633  0.79402867  0.77993167  1
  B  B864  1  0.13646333  0.29498667  0.06916433  1
  B  B865  1  0.13646333  0.29498667  0.40249767  1
  B  B866  1  0.13646333  0.29498667  0.73583100  1
  B  B867  1  0.13646333  0.62832000  0.06916433  1
  B  B868  1  0.13646333  0.62832000  0.40249767  1
  B  B869  1  0.13646333  0.62832000  0.73583100  1
  B  B870  1  0.13646333  0.96165333  0.06916433  1
  B  B871  1  0.13646333  0.96165333  0.40249767  1
  B  B872  1  0.13646333  0.96165333  0.73583100  1
  B  B873  1  0.46979667  0.29498667  0.06916433  1
  B  B874  1  0.46979667  0.29498667  0.40249767  1
  B  B875  1  0.46979667  0.29498667  0.73583100  1
  B  B876  1  0.46979667  0.62832000  0.06916433  1
  B  B877  1  0.46979667  0.62832000  0.40249767  1
  B  B878  1  0.46979667  0.62832000  0.73583100  1
  B  B879  1  0.46979667  0.96165333  0.06916433  1
  B  B880  1  0.46979667  0.96165333  0.40249767  1
  B  B881  1  0.46979667  0.96165333  0.73583100  1
  B  B882  1  0.80313000  0.29498667  0.06916433  1
  B  B883  1  0.80313000  0.29498667  0.40249767  1
  B  B884  1  0.80313000  0.29498667  0.73583100  1
  B  B885  1  0.80313000  0.62832000  0.06916433  1
  B  B886  1  0.80313000  0.62832000  0.40249767  1
  B  B887  1  0.80313000  0.62832000  0.73583100  1
  B  B888  1  0.80313000  0.96165333  0.06916433  1
  B  B889  1  0.80313000  0.96165333  0.40249767  1
  B  B890  1  0.80313000  0.96165333  0.73583100  1
  B  B891  1  0.19687000  0.03834667  0.26416900  1
  B  B892  1  0.19687000  0.03834667  0.59750233  1
  B  B893  1  0.19687000  0.03834667  0.93083567  1
  B  B894  1  0.19687000  0.37168000  0.26416900  1
  B  B895  1  0.19687000  0.37168000  0.59750233  1
  B  B896  1  0.19687000  0.37168000  0.93083567  1
  B  B897  1  0.19687000  0.70501333  0.26416900  1
  B  B898  1  0.19687000  0.70501333  0.59750233  1
  B  B899  1  0.19687000  0.70501333  0.93083567  1
  B  B900  1  0.53020333  0.03834667  0.26416900  1
  B  B901  1  0.53020333  0.03834667  0.59750233  1
  B  B902  1  0.53020333  0.03834667  0.93083567  1
  B  B903  1  0.53020333  0.37168000  0.26416900  1
  B  B904  1  0.53020333  0.37168000  0.59750233  1
  B  B905  1  0.53020333  0.37168000  0.93083567  1
  B  B906  1  0.53020333  0.70501333  0.26416900  1
  B  B907  1  0.53020333  0.70501333  0.59750233  1
  B  B908  1  0.53020333  0.70501333  0.93083567  1
  B  B909  1  0.86353667  0.03834667  0.26416900  1
  B  B910  1  0.86353667  0.03834667  0.59750233  1
  B  B911  1  0.86353667  0.03834667  0.93083567  1
  B  B912  1  0.86353667  0.37168000  0.26416900  1
  B  B913  1  0.86353667  0.37168000  0.59750233  1
  B  B914  1  0.86353667  0.37168000  0.93083567  1
  B  B915  1  0.86353667  0.70501333  0.26416900  1
  B  B916  1  0.86353667  0.70501333  0.59750233  1
  B  B917  1  0.86353667  0.70501333  0.93083567  1
  B  B918  1  0.10334067  0.26788633  0.30767133  1
  B  B919  1  0.10334067  0.26788633  0.64100467  1
  B  B920  1  0.10334067  0.26788633  0.97433800  1
  B  B921  1  0.10334067  0.60121967  0.30767133  1
  B  B922  1  0.10334067  0.60121967  0.64100467  1
  B  B923  1  0.10334067  0.60121967  0.97433800  1
  B  B924  1  0.10334067  0.93455300  0.30767133  1
  B  B925  1  0.10334067  0.93455300  0.64100467  1
  B  B926  1  0.10334067  0.93455300  0.97433800  1
  B  B927  1  0.43667400  0.26788633  0.30767133  1
  B  B928  1  0.43667400  0.26788633  0.64100467  1
  B  B929  1  0.43667400  0.26788633  0.97433800  1
  B  B930  1  0.43667400  0.60121967  0.30767133  1
  B  B931  1  0.43667400  0.60121967  0.64100467  1
  B  B932  1  0.43667400  0.60121967  0.97433800  1
  B  B933  1  0.43667400  0.93455300  0.30767133  1
  B  B934  1  0.43667400  0.93455300  0.64100467  1
  B  B935  1  0.43667400  0.93455300  0.97433800  1
  B  B936  1  0.77000733  0.26788633  0.30767133  1
  B  B937  1  0.77000733  0.26788633  0.64100467  1
  B  B938  1  0.77000733  0.26788633  0.97433800  1
  B  B939  1  0.77000733  0.60121967  0.30767133  1
  B  B940  1  0.77000733  0.60121967  0.64100467  1
  B  B941  1  0.77000733  0.60121967  0.97433800  1
  B  B942  1  0.77000733  0.93455300  0.30767133  1
  B  B943  1  0.77000733  0.93455300  0.64100467  1
  B  B944  1  0.77000733  0.93455300  0.97433800  1
  B  B945  1  0.22999267  0.06544700  0.02566200  1
  B  B946  1  0.22999267  0.06544700  0.35899533  1
  B  B947  1  0.22999267  0.06544700  0.69232867  1
  B  B948  1  0.22999267  0.39878033  0.02566200  1
  B  B949  1  0.22999267  0.39878033  0.35899533  1
  B  B950  1  0.22999267  0.39878033  0.69232867  1
  B  B951  1  0.22999267  0.73211367  0.02566200  1
  B  B952  1  0.22999267  0.73211367  0.35899533  1
  B  B953  1  0.22999267  0.73211367  0.69232867  1
  B  B954  1  0.56332600  0.06544700  0.02566200  1
  B  B955  1  0.56332600  0.06544700  0.35899533  1
  B  B956  1  0.56332600  0.06544700  0.69232867  1
  B  B957  1  0.56332600  0.39878033  0.02566200  1
  B  B958  1  0.56332600  0.39878033  0.35899533  1
  B  B959  1  0.56332600  0.39878033  0.69232867  1
  B  B960  1  0.56332600  0.73211367  0.02566200  1
  B  B961  1  0.56332600  0.73211367  0.35899533  1
  B  B962  1  0.56332600  0.73211367  0.69232867  1
  B  B963  1  0.89665933  0.06544700  0.02566200  1
  B  B964  1  0.89665933  0.06544700  0.35899533  1
  B  B965  1  0.89665933  0.06544700  0.69232867  1
  B  B966  1  0.89665933  0.39878033  0.02566200  1
  B  B967  1  0.89665933  0.39878033  0.35899533  1
  B  B968  1  0.89665933  0.39878033  0.69232867  1
  B  B969  1  0.89665933  0.73211367  0.02566200  1
  B  B970  1  0.89665933  0.73211367  0.35899533  1
  B  B971  1  0.89665933  0.73211367  0.69232867  1
  B  B972  1  0.03084933  0.21978133  0.31435933  1
  B  B973  1  0.03084933  0.21978133  0.64769267  1
  B  B974  1  0.03084933  0.21978133  0.98102600  1
  B  B975  1  0.03084933  0.55311467  0.31435933  1
  B  B976  1  0.03084933  0.55311467  0.64769267  1
  B  B977  1  0.03084933  0.55311467  0.98102600  1
  B  B978  1  0.03084933  0.88644800  0.31435933  1
  B  B979  1  0.03084933  0.88644800  0.64769267  1
  B  B980  1  0.03084933  0.88644800  0.98102600  1
  B  B981  1  0.36418267  0.21978133  0.31435933  1
  B  B982  1  0.36418267  0.21978133  0.64769267  1
  B  B983  1  0.36418267  0.21978133  0.98102600  1
  B  B984  1  0.36418267  0.55311467  0.31435933  1
  B  B985  1  0.36418267  0.55311467  0.64769267  1
  B  B986  1  0.36418267  0.55311467  0.98102600  1
  B  B987  1  0.36418267  0.88644800  0.31435933  1
  B  B988  1  0.36418267  0.88644800  0.64769267  1
  B  B989  1  0.36418267  0.88644800  0.98102600  1
  B  B990  1  0.69751600  0.21978133  0.31435933  1
  B  B991  1  0.69751600  0.21978133  0.64769267  1
  B  B992  1  0.69751600  0.21978133  0.98102600  1
  B  B993  1  0.69751600  0.55311467  0.31435933  1
  B  B994  1  0.69751600  0.55311467  0.64769267  1
  B  B995  1  0.69751600  0.55311467  0.98102600  1
  B  B996  1  0.69751600  0.88644800  0.31435933  1
  B  B997  1  0.69751600  0.88644800  0.64769267  1
  B  B998  1  0.69751600  0.88644800  0.98102600  1
  B  B999  1  0.30248400  0.11355200  0.01897400  1
  B  B1000  1  0.30248400  0.11355200  0.35230733  1
  B  B1001  1  0.30248400  0.11355200  0.68564067  1
  B  B1002  1  0.30248400  0.44688533  0.01897400  1
  B  B1003  1  0.30248400  0.44688533  0.35230733  1
  B  B1004  1  0.30248400  0.44688533  0.68564067  1
  B  B1005  1  0.30248400  0.78021867  0.01897400  1
  B  B1006  1  0.30248400  0.78021867  0.35230733  1
  B  B1007  1  0.30248400  0.78021867  0.68564067  1
  B  B1008  1  0.63581733  0.11355200  0.01897400  1
  B  B1009  1  0.63581733  0.11355200  0.35230733  1
  B  B1010  1  0.63581733  0.11355200  0.68564067  1
  B  B1011  1  0.63581733  0.44688533  0.01897400  1
  B  B1012  1  0.63581733  0.44688533  0.35230733  1
  B  B1013  1  0.63581733  0.44688533  0.68564067  1
  B  B1014  1  0.63581733  0.78021867  0.01897400  1
  B  B1015  1  0.63581733  0.78021867  0.35230733  1
  B  B1016  1  0.63581733  0.78021867  0.68564067  1
  B  B1017  1  0.96915067  0.11355200  0.01897400  1
  B  B1018  1  0.96915067  0.11355200  0.35230733  1
  B  B1019  1  0.96915067  0.11355200  0.68564067  1
  B  B1020  1  0.96915067  0.44688533  0.01897400  1
  B  B1021  1  0.96915067  0.44688533  0.35230733  1
  B  B1022  1  0.96915067  0.44688533  0.68564067  1
  B  B1023  1  0.96915067  0.78021867  0.01897400  1
  B  B1024  1  0.96915067  0.78021867  0.35230733  1
  B  B1025  1  0.96915067  0.78021867  0.68564067  1
  B  B1026  1  0.01768067  0.29325867  0.29970800  1
  B  B1027  1  0.01768067  0.29325867  0.63304133  1
  B  B1028  1  0.01768067  0.29325867  0.96637467  1
  B  B1029  1  0.01768067  0.62659200  0.29970800  1
  B  B1030  1  0.01768067  0.62659200  0.63304133  1
  B  B1031  1  0.01768067  0.62659200  0.96637467  1
  B  B1032  1  0.01768067  0.95992533  0.29970800  1
  B  B1033  1  0.01768067  0.95992533  0.63304133  1
  B  B1034  1  0.01768067  0.95992533  0.96637467  1
  B  B1035  1  0.35101400  0.29325867  0.29970800  1
  B  B1036  1  0.35101400  0.29325867  0.63304133  1
  B  B1037  1  0.35101400  0.29325867  0.96637467  1
  B  B1038  1  0.35101400  0.62659200  0.29970800  1
  B  B1039  1  0.35101400  0.62659200  0.63304133  1
  B  B1040  1  0.35101400  0.62659200  0.96637467  1
  B  B1041  1  0.35101400  0.95992533  0.29970800  1
  B  B1042  1  0.35101400  0.95992533  0.63304133  1
  B  B1043  1  0.35101400  0.95992533  0.96637467  1
  B  B1044  1  0.68434733  0.29325867  0.29970800  1
  B  B1045  1  0.68434733  0.29325867  0.63304133  1
  B  B1046  1  0.68434733  0.29325867  0.96637467  1
  B  B1047  1  0.68434733  0.62659200  0.29970800  1
  B  B1048  1  0.68434733  0.62659200  0.63304133  1
  B  B1049  1  0.68434733  0.62659200  0.96637467  1
  B  B1050  1  0.68434733  0.95992533  0.29970800  1
  B  B1051  1  0.68434733  0.95992533  0.63304133  1
  B  B1052  1  0.68434733  0.95992533  0.96637467  1
  B  B1053  1  0.31565267  0.04007467  0.03362533  1
  B  B1054  1  0.31565267  0.04007467  0.36695867  1
  B  B1055  1  0.31565267  0.04007467  0.70029200  1
  B  B1056  1  0.31565267  0.37340800  0.03362533  1
  B  B1057  1  0.31565267  0.37340800  0.36695867  1
  B  B1058  1  0.31565267  0.37340800  0.70029200  1
  B  B1059  1  0.31565267  0.70674133  0.03362533  1
  B  B1060  1  0.31565267  0.70674133  0.36695867  1
  B  B1061  1  0.31565267  0.70674133  0.70029200  1
  B  B1062  1  0.64898600  0.04007467  0.03362533  1
  B  B1063  1  0.64898600  0.04007467  0.36695867  1
  B  B1064  1  0.64898600  0.04007467  0.70029200  1
  B  B1065  1  0.64898600  0.37340800  0.03362533  1
  B  B1066  1  0.64898600  0.37340800  0.36695867  1
  B  B1067  1  0.64898600  0.37340800  0.70029200  1
  B  B1068  1  0.64898600  0.70674133  0.03362533  1
  B  B1069  1  0.64898600  0.70674133  0.36695867  1
  B  B1070  1  0.64898600  0.70674133  0.70029200  1
  B  B1071  1  0.98231933  0.04007467  0.03362533  1
  B  B1072  1  0.98231933  0.04007467  0.36695867  1
  B  B1073  1  0.98231933  0.04007467  0.70029200  1
  B  B1074  1  0.98231933  0.37340800  0.03362533  1
  B  B1075  1  0.98231933  0.37340800  0.36695867  1
  B  B1076  1  0.98231933  0.37340800  0.70029200  1
  B  B1077  1  0.98231933  0.70674133  0.03362533  1
  B  B1078  1  0.98231933  0.70674133  0.36695867  1
  B  B1079  1  0.98231933  0.70674133  0.70029200  1
  P  P1080  1  0.30733233  0.15691233  0.29085800  1
  P  P1081  1  0.30733233  0.15691233  0.62419133  1
  P  P1082  1  0.30733233  0.15691233  0.95752467  1
  P  P1083  1  0.30733233  0.49024567  0.29085800  1
  P  P1084  1  0.30733233  0.49024567  0.62419133  1
  P  P1085  1  0.30733233  0.49024567  0.95752467  1
  P  P1086  1  0.30733233  0.82357900  0.29085800  1
  P  P1087  1  0.30733233  0.82357900  0.62419133  1
  P  P1088  1  0.30733233  0.82357900  0.95752467  1
  P  P1089  1  0.64066567  0.15691233  0.29085800  1
  P  P1090  1  0.64066567  0.15691233  0.62419133  1
  P  P1091  1  0.64066567  0.15691233  0.95752467  1
  P  P1092  1  0.64066567  0.49024567  0.29085800  1
  P  P1093  1  0.64066567  0.49024567  0.62419133  1
  P  P1094  1  0.64066567  0.49024567  0.95752467  1
  P  P1095  1  0.64066567  0.82357900  0.29085800  1
  P  P1096  1  0.64066567  0.82357900  0.62419133  1
  P  P1097  1  0.64066567  0.82357900  0.95752467  1
  P  P1098  1  0.97399900  0.15691233  0.29085800  1
  P  P1099  1  0.97399900  0.15691233  0.62419133  1
  P  P1100  1  0.97399900  0.15691233  0.95752467  1
  P  P1101  1  0.97399900  0.49024567  0.29085800  1
  P  P1102  1  0.97399900  0.49024567  0.62419133  1
  P  P1103  1  0.97399900  0.49024567  0.95752467  1
  P  P1104  1  0.97399900  0.82357900  0.29085800  1
  P  P1105  1  0.97399900  0.82357900  0.62419133  1
  P  P1106  1  0.97399900  0.82357900  0.95752467  1
  P  P1107  1  0.02600100  0.17642100  0.04247533  1
  P  P1108  1  0.02600100  0.17642100  0.37580867  1
  P  P1109  1  0.02600100  0.17642100  0.70914200  1
  P  P1110  1  0.02600100  0.50975433  0.04247533  1
  P  P1111  1  0.02600100  0.50975433  0.37580867  1
  P  P1112  1  0.02600100  0.50975433  0.70914200  1
  P  P1113  1  0.02600100  0.84308767  0.04247533  1
  P  P1114  1  0.02600100  0.84308767  0.37580867  1
  P  P1115  1  0.02600100  0.84308767  0.70914200  1
  P  P1116  1  0.35933433  0.17642100  0.04247533  1
  P  P1117  1  0.35933433  0.17642100  0.37580867  1
  P  P1118  1  0.35933433  0.17642100  0.70914200  1
  P  P1119  1  0.35933433  0.50975433  0.04247533  1
  P  P1120  1  0.35933433  0.50975433  0.37580867  1
  P  P1121  1  0.35933433  0.50975433  0.70914200  1
  P  P1122  1  0.35933433  0.84308767  0.04247533  1
  P  P1123  1  0.35933433  0.84308767  0.37580867  1
  P  P1124  1  0.35933433  0.84308767  0.70914200  1
  P  P1125  1  0.69266767  0.17642100  0.04247533  1
  P  P1126  1  0.69266767  0.17642100  0.37580867  1
  P  P1127  1  0.69266767  0.17642100  0.70914200  1
  P  P1128  1  0.69266767  0.50975433  0.04247533  1
  P  P1129  1  0.69266767  0.50975433  0.37580867  1
  P  P1130  1  0.69266767  0.50975433  0.70914200  1
  P  P1131  1  0.69266767  0.84308767  0.04247533  1
  P  P1132  1  0.69266767  0.84308767  0.37580867  1
  P  P1133  1  0.69266767  0.84308767  0.70914200  1
  P  P1134  1  0.30052267  0.31140767  0.12111533  1
  P  P1135  1  0.30052267  0.31140767  0.45444867  1
  P  P1136  1  0.30052267  0.31140767  0.78778200  1
  P  P1137  1  0.30052267  0.64474100  0.12111533  1
  P  P1138  1  0.30052267  0.64474100  0.45444867  1
  P  P1139  1  0.30052267  0.64474100  0.78778200  1
  P  P1140  1  0.30052267  0.97807433  0.12111533  1
  P  P1141  1  0.30052267  0.97807433  0.45444867  1
  P  P1142  1  0.30052267  0.97807433  0.78778200  1
  P  P1143  1  0.63385600  0.31140767  0.12111533  1
  P  P1144  1  0.63385600  0.31140767  0.45444867  1
  P  P1145  1  0.63385600  0.31140767  0.78778200  1
  P  P1146  1  0.63385600  0.64474100  0.12111533  1
  P  P1147  1  0.63385600  0.64474100  0.45444867  1
  P  P1148  1  0.63385600  0.64474100  0.78778200  1
  P  P1149  1  0.63385600  0.97807433  0.12111533  1
  P  P1150  1  0.63385600  0.97807433  0.45444867  1
  P  P1151  1  0.63385600  0.97807433  0.78778200  1
  P  P1152  1  0.96718933  0.31140767  0.12111533  1
  P  P1153  1  0.96718933  0.31140767  0.45444867  1
  P  P1154  1  0.96718933  0.31140767  0.78778200  1
  P  P1155  1  0.96718933  0.64474100  0.12111533  1
  P  P1156  1  0.96718933  0.64474100  0.45444867  1
  P  P1157  1  0.96718933  0.64474100  0.78778200  1
  P  P1158  1  0.96718933  0.97807433  0.12111533  1
  P  P1159  1  0.96718933  0.97807433  0.45444867  1
  P  P1160  1  0.96718933  0.97807433  0.78778200  1
  P  P1161  1  0.03281067  0.02192567  0.21221800  1
  P  P1162  1  0.03281067  0.02192567  0.54555133  1
  P  P1163  1  0.03281067  0.02192567  0.87888467  1
  P  P1164  1  0.03281067  0.35525900  0.21221800  1
  P  P1165  1  0.03281067  0.35525900  0.54555133  1
  P  P1166  1  0.03281067  0.35525900  0.87888467  1
  P  P1167  1  0.03281067  0.68859233  0.21221800  1
  P  P1168  1  0.03281067  0.68859233  0.54555133  1
  P  P1169  1  0.03281067  0.68859233  0.87888467  1
  P  P1170  1  0.36614400  0.02192567  0.21221800  1
  P  P1171  1  0.36614400  0.02192567  0.54555133  1
  P  P1172  1  0.36614400  0.02192567  0.87888467  1
  P  P1173  1  0.36614400  0.35525900  0.21221800  1
  P  P1174  1  0.36614400  0.35525900  0.54555133  1
  P  P1175  1  0.36614400  0.35525900  0.87888467  1
  P  P1176  1  0.36614400  0.68859233  0.21221800  1
  P  P1177  1  0.36614400  0.68859233  0.54555133  1
  P  P1178  1  0.36614400  0.68859233  0.87888467  1
  P  P1179  1  0.69947733  0.02192567  0.21221800  1
  P  P1180  1  0.69947733  0.02192567  0.54555133  1
  P  P1181  1  0.69947733  0.02192567  0.87888467  1
  P  P1182  1  0.69947733  0.35525900  0.21221800  1
  P  P1183  1  0.69947733  0.35525900  0.54555133  1
  P  P1184  1  0.69947733  0.35525900  0.87888467  1
  P  P1185  1  0.69947733  0.68859233  0.21221800  1
  P  P1186  1  0.69947733  0.68859233  0.54555133  1
  P  P1187  1  0.69947733  0.68859233  0.87888467  1
  P  P1188  1  0.13621433  0.26403133  0.13562133  1
  P  P1189  1  0.13621433  0.26403133  0.46895467  1
  P  P1190  1  0.13621433  0.26403133  0.80228800  1
  P  P1191  1  0.13621433  0.59736467  0.13562133  1
  P  P1192  1  0.13621433  0.59736467  0.46895467  1
  P  P1193  1  0.13621433  0.59736467  0.80228800  1
  P  P1194  1  0.13621433  0.93069800  0.13562133  1
  P  P1195  1  0.13621433  0.93069800  0.46895467  1
  P  P1196  1  0.13621433  0.93069800  0.80228800  1
  P  P1197  1  0.46954767  0.26403133  0.13562133  1
  P  P1198  1  0.46954767  0.26403133  0.46895467  1
  P  P1199  1  0.46954767  0.26403133  0.80228800  1
  P  P1200  1  0.46954767  0.59736467  0.13562133  1
  P  P1201  1  0.46954767  0.59736467  0.46895467  1
  P  P1202  1  0.46954767  0.59736467  0.80228800  1
  P  P1203  1  0.46954767  0.93069800  0.13562133  1
  P  P1204  1  0.46954767  0.93069800  0.46895467  1
  P  P1205  1  0.46954767  0.93069800  0.80228800  1
  P  P1206  1  0.80288100  0.26403133  0.13562133  1
  P  P1207  1  0.80288100  0.26403133  0.46895467  1
  P  P1208  1  0.80288100  0.26403133  0.80228800  1
  P  P1209  1  0.80288100  0.59736467  0.13562133  1
  P  P1210  1  0.80288100  0.59736467  0.46895467  1
  P  P1211  1  0.80288100  0.59736467  0.80228800  1
  P  P1212  1  0.80288100  0.93069800  0.13562133  1
  P  P1213  1  0.80288100  0.93069800  0.46895467  1
  P  P1214  1  0.80288100  0.93069800  0.80228800  1
  P  P1215  1  0.19711900  0.06930200  0.19771200  1
  P  P1216  1  0.19711900  0.06930200  0.53104533  1
  P  P1217  1  0.19711900  0.06930200  0.86437867  1
  P  P1218  1  0.19711900  0.40263533  0.19771200  1
  P  P1219  1  0.19711900  0.40263533  0.53104533  1
  P  P1220  1  0.19711900  0.40263533  0.86437867  1
  P  P1221  1  0.19711900  0.73596867  0.19771200  1
  P  P1222  1  0.19711900  0.73596867  0.53104533  1
  P  P1223  1  0.19711900  0.73596867  0.86437867  1
  P  P1224  1  0.53045233  0.06930200  0.19771200  1
  P  P1225  1  0.53045233  0.06930200  0.53104533  1
  P  P1226  1  0.53045233  0.06930200  0.86437867  1
  P  P1227  1  0.53045233  0.40263533  0.19771200  1
  P  P1228  1  0.53045233  0.40263533  0.53104533  1
  P  P1229  1  0.53045233  0.40263533  0.86437867  1
  P  P1230  1  0.53045233  0.73596867  0.19771200  1
  P  P1231  1  0.53045233  0.73596867  0.53104533  1
  P  P1232  1  0.53045233  0.73596867  0.86437867  1
  P  P1233  1  0.86378567  0.06930200  0.19771200  1
  P  P1234  1  0.86378567  0.06930200  0.53104533  1
  P  P1235  1  0.86378567  0.06930200  0.86437867  1
  P  P1236  1  0.86378567  0.40263533  0.19771200  1
  P  P1237  1  0.86378567  0.40263533  0.53104533  1
  P  P1238  1  0.86378567  0.40263533  0.86437867  1
  P  P1239  1  0.86378567  0.73596867  0.19771200  1
  P  P1240  1  0.86378567  0.73596867  0.53104533  1
  P  P1241  1  0.86378567  0.73596867  0.86437867  1
  P  P1242  1  0.13605933  0.10260367  0.28552200  1
  P  P1243  1  0.13605933  0.10260367  0.61885533  1
  P  P1244  1  0.13605933  0.10260367  0.95218867  1
  P  P1245  1  0.13605933  0.43593700  0.28552200  1
  P  P1246  1  0.13605933  0.43593700  0.61885533  1
  P  P1247  1  0.13605933  0.43593700  0.95218867  1
  P  P1248  1  0.13605933  0.76927033  0.28552200  1
  P  P1249  1  0.13605933  0.76927033  0.61885533  1
  P  P1250  1  0.13605933  0.76927033  0.95218867  1
  P  P1251  1  0.46939267  0.10260367  0.28552200  1
  P  P1252  1  0.46939267  0.10260367  0.61885533  1
  P  P1253  1  0.46939267  0.10260367  0.95218867  1
  P  P1254  1  0.46939267  0.43593700  0.28552200  1
  P  P1255  1  0.46939267  0.43593700  0.61885533  1
  P  P1256  1  0.46939267  0.43593700  0.95218867  1
  P  P1257  1  0.46939267  0.76927033  0.28552200  1
  P  P1258  1  0.46939267  0.76927033  0.61885533  1
  P  P1259  1  0.46939267  0.76927033  0.95218867  1
  P  P1260  1  0.80272600  0.10260367  0.28552200  1
  P  P1261  1  0.80272600  0.10260367  0.61885533  1
  P  P1262  1  0.80272600  0.10260367  0.95218867  1
  P  P1263  1  0.80272600  0.43593700  0.28552200  1
  P  P1264  1  0.80272600  0.43593700  0.61885533  1
  P  P1265  1  0.80272600  0.43593700  0.95218867  1
  P  P1266  1  0.80272600  0.76927033  0.28552200  1
  P  P1267  1  0.80272600  0.76927033  0.61885533  1
  P  P1268  1  0.80272600  0.76927033  0.95218867  1
  P  P1269  1  0.19727400  0.23072967  0.04781133  1
  P  P1270  1  0.19727400  0.23072967  0.38114467  1
  P  P1271  1  0.19727400  0.23072967  0.71447800  1
  P  P1272  1  0.19727400  0.56406300  0.04781133  1
  P  P1273  1  0.19727400  0.56406300  0.38114467  1
  P  P1274  1  0.19727400  0.56406300  0.71447800  1
  P  P1275  1  0.19727400  0.89739633  0.04781133  1
  P  P1276  1  0.19727400  0.89739633  0.38114467  1
  P  P1277  1  0.19727400  0.89739633  0.71447800  1
  P  P1278  1  0.53060733  0.23072967  0.04781133  1
  P  P1279  1  0.53060733  0.23072967  0.38114467  1
  P  P1280  1  0.53060733  0.23072967  0.71447800  1
  P  P1281  1  0.53060733  0.56406300  0.04781133  1
  P  P1282  1  0.53060733  0.56406300  0.38114467  1
  P  P1283  1  0.53060733  0.56406300  0.71447800  1
  P  P1284  1  0.53060733  0.89739633  0.04781133  1
  P  P1285  1  0.53060733  0.89739633  0.38114467  1
  P  P1286  1  0.53060733  0.89739633  0.71447800  1
  P  P1287  1  0.86394067  0.23072967  0.04781133  1
  P  P1288  1  0.86394067  0.23072967  0.38114467  1
  P  P1289  1  0.86394067  0.23072967  0.71447800  1
  P  P1290  1  0.86394067  0.56406300  0.04781133  1
  P  P1291  1  0.86394067  0.56406300  0.38114467  1
  P  P1292  1  0.86394067  0.56406300  0.71447800  1
  P  P1293  1  0.86394067  0.89739633  0.04781133  1
  P  P1294  1  0.86394067  0.89739633  0.38114467  1
  P  P1295  1  0.86394067  0.89739633  0.71447800  1
  O  O1296  1  0.33217567  0.26337467  0.19548133  1
  O  O1297  1  0.33217567  0.26337467  0.52881467  1
  O  O1298  1  0.33217567  0.26337467  0.86214800  1
  O  O1299  1  0.33217567  0.59670800  0.19548133  1
  O  O1300  1  0.33217567  0.59670800  0.52881467  1
  O  O1301  1  0.33217567  0.59670800  0.86214800  1
  O  O1302  1  0.33217567  0.93004133  0.19548133  1
  O  O1303  1  0.33217567  0.93004133  0.52881467  1
  O  O1304  1  0.33217567  0.93004133  0.86214800  1
  O  O1305  1  0.66550900  0.26337467  0.19548133  1
  O  O1306  1  0.66550900  0.26337467  0.52881467  1
  O  O1307  1  0.66550900  0.26337467  0.86214800  1
  O  O1308  1  0.66550900  0.59670800  0.19548133  1
  O  O1309  1  0.66550900  0.59670800  0.52881467  1
  O  O1310  1  0.66550900  0.59670800  0.86214800  1
  O  O1311  1  0.66550900  0.93004133  0.19548133  1
  O  O1312  1  0.66550900  0.93004133  0.52881467  1
  O  O1313  1  0.66550900  0.93004133  0.86214800  1
  O  O1314  1  0.99884233  0.26337467  0.19548133  1
  O  O1315  1  0.99884233  0.26337467  0.52881467  1
  O  O1316  1  0.99884233  0.26337467  0.86214800  1
  O  O1317  1  0.99884233  0.59670800  0.19548133  1
  O  O1318  1  0.99884233  0.59670800  0.52881467  1
  O  O1319  1  0.99884233  0.59670800  0.86214800  1
  O  O1320  1  0.99884233  0.93004133  0.19548133  1
  O  O1321  1  0.99884233  0.93004133  0.52881467  1
  O  O1322  1  0.99884233  0.93004133  0.86214800  1
  O  O1323  1  0.00115767  0.06995867  0.13785200  1
  O  O1324  1  0.00115767  0.06995867  0.47118533  1
  O  O1325  1  0.00115767  0.06995867  0.80451867  1
  O  O1326  1  0.00115767  0.40329200  0.13785200  1
  O  O1327  1  0.00115767  0.40329200  0.47118533  1
  O  O1328  1  0.00115767  0.40329200  0.80451867  1
  O  O1329  1  0.00115767  0.73662533  0.13785200  1
  O  O1330  1  0.00115767  0.73662533  0.47118533  1
  O  O1331  1  0.00115767  0.73662533  0.80451867  1
  O  O1332  1  0.33449100  0.06995867  0.13785200  1
  O  O1333  1  0.33449100  0.06995867  0.47118533  1
  O  O1334  1  0.33449100  0.06995867  0.80451867  1
  O  O1335  1  0.33449100  0.40329200  0.13785200  1
  O  O1336  1  0.33449100  0.40329200  0.47118533  1
  O  O1337  1  0.33449100  0.40329200  0.80451867  1
  O  O1338  1  0.33449100  0.73662533  0.13785200  1
  O  O1339  1  0.33449100  0.73662533  0.47118533  1
  O  O1340  1  0.33449100  0.73662533  0.80451867  1
  O  O1341  1  0.66782433  0.06995867  0.13785200  1
  O  O1342  1  0.66782433  0.06995867  0.47118533  1
  O  O1343  1  0.66782433  0.06995867  0.80451867  1
  O  O1344  1  0.66782433  0.40329200  0.13785200  1
  O  O1345  1  0.66782433  0.40329200  0.47118533  1
  O  O1346  1  0.66782433  0.40329200  0.80451867  1
  O  O1347  1  0.66782433  0.73662533  0.13785200  1
  O  O1348  1  0.66782433  0.73662533  0.47118533  1
  O  O1349  1  0.66782433  0.73662533  0.80451867  1
  O  O1350  1  0.33216033  0.25498333  0.30352767  1
  O  O1351  1  0.33216033  0.25498333  0.63686100  1
  O  O1352  1  0.33216033  0.25498333  0.97019433  1
  O  O1353  1  0.33216033  0.58831667  0.30352767  1
  O  O1354  1  0.33216033  0.58831667  0.63686100  1
  O  O1355  1  0.33216033  0.58831667  0.97019433  1
  O  O1356  1  0.33216033  0.92165000  0.30352767  1
  O  O1357  1  0.33216033  0.92165000  0.63686100  1
  O  O1358  1  0.33216033  0.92165000  0.97019433  1
  O  O1359  1  0.66549367  0.25498333  0.30352767  1
  O  O1360  1  0.66549367  0.25498333  0.63686100  1
  O  O1361  1  0.66549367  0.25498333  0.97019433  1
  O  O1362  1  0.66549367  0.58831667  0.30352767  1
  O  O1363  1  0.66549367  0.58831667  0.63686100  1
  O  O1364  1  0.66549367  0.58831667  0.97019433  1
  O  O1365  1  0.66549367  0.92165000  0.30352767  1
  O  O1366  1  0.66549367  0.92165000  0.63686100  1
  O  O1367  1  0.66549367  0.92165000  0.97019433  1
  O  O1368  1  0.99882700  0.25498333  0.30352767  1
  O  O1369  1  0.99882700  0.25498333  0.63686100  1
  O  O1370  1  0.99882700  0.25498333  0.97019433  1
  O  O1371  1  0.99882700  0.58831667  0.30352767  1
  O  O1372  1  0.99882700  0.58831667  0.63686100  1
  O  O1373  1  0.99882700  0.58831667  0.97019433  1
  O  O1374  1  0.99882700  0.92165000  0.30352767  1
  O  O1375  1  0.99882700  0.92165000  0.63686100  1
  O  O1376  1  0.99882700  0.92165000  0.97019433  1
  O  O1377  1  0.00117300  0.07835000  0.02980567  1
  O  O1378  1  0.00117300  0.07835000  0.36313900  1
  O  O1379  1  0.00117300  0.07835000  0.69647233  1
  O  O1380  1  0.00117300  0.41168333  0.02980567  1
  O  O1381  1  0.00117300  0.41168333  0.36313900  1
  O  O1382  1  0.00117300  0.41168333  0.69647233  1
  O  O1383  1  0.00117300  0.74501667  0.02980567  1
  O  O1384  1  0.00117300  0.74501667  0.36313900  1
  O  O1385  1  0.00117300  0.74501667  0.69647233  1
  O  O1386  1  0.33450633  0.07835000  0.02980567  1
  O  O1387  1  0.33450633  0.07835000  0.36313900  1
  O  O1388  1  0.33450633  0.07835000  0.69647233  1
  O  O1389  1  0.33450633  0.41168333  0.02980567  1
  O  O1390  1  0.33450633  0.41168333  0.36313900  1
  O  O1391  1  0.33450633  0.41168333  0.69647233  1
  O  O1392  1  0.33450633  0.74501667  0.02980567  1
  O  O1393  1  0.33450633  0.74501667  0.36313900  1
  O  O1394  1  0.33450633  0.74501667  0.69647233  1
  O  O1395  1  0.66783967  0.07835000  0.02980567  1
  O  O1396  1  0.66783967  0.07835000  0.36313900  1
  O  O1397  1  0.66783967  0.07835000  0.69647233  1
  O  O1398  1  0.66783967  0.41168333  0.02980567  1
  O  O1399  1  0.66783967  0.41168333  0.36313900  1
  O  O1400  1  0.66783967  0.41168333  0.69647233  1
  O  O1401  1  0.66783967  0.74501667  0.02980567  1
  O  O1402  1  0.66783967  0.74501667  0.36313900  1
  O  O1403  1  0.66783967  0.74501667  0.69647233  1
  O  O1404  1  0.32139600  0.32656967  0.29131667  1
  O  O1405  1  0.32139600  0.32656967  0.62465000  1
  O  O1406  1  0.32139600  0.32656967  0.95798333  1
  O  O1407  1  0.32139600  0.65990300  0.29131667  1
  O  O1408  1  0.32139600  0.65990300  0.62465000  1
  O  O1409  1  0.32139600  0.65990300  0.95798333  1
  O  O1410  1  0.32139600  0.99323633  0.29131667  1
  O  O1411  1  0.32139600  0.99323633  0.62465000  1
  O  O1412  1  0.32139600  0.99323633  0.95798333  1
  O  O1413  1  0.65472933  0.32656967  0.29131667  1
  O  O1414  1  0.65472933  0.32656967  0.62465000  1
  O  O1415  1  0.65472933  0.32656967  0.95798333  1
  O  O1416  1  0.65472933  0.65990300  0.29131667  1
  O  O1417  1  0.65472933  0.65990300  0.62465000  1
  O  O1418  1  0.65472933  0.65990300  0.95798333  1
  O  O1419  1  0.65472933  0.99323633  0.29131667  1
  O  O1420  1  0.65472933  0.99323633  0.62465000  1
  O  O1421  1  0.65472933  0.99323633  0.95798333  1
  O  O1422  1  0.98806267  0.32656967  0.29131667  1
  O  O1423  1  0.98806267  0.32656967  0.62465000  1
  O  O1424  1  0.98806267  0.32656967  0.95798333  1
  O  O1425  1  0.98806267  0.65990300  0.29131667  1
  O  O1426  1  0.98806267  0.65990300  0.62465000  1
  O  O1427  1  0.98806267  0.65990300  0.95798333  1
  O  O1428  1  0.98806267  0.99323633  0.29131667  1
  O  O1429  1  0.98806267  0.99323633  0.62465000  1
  O  O1430  1  0.98806267  0.99323633  0.95798333  1
  O  O1431  1  0.01193733  0.00676367  0.04201667  1
  O  O1432  1  0.01193733  0.00676367  0.37535000  1
  O  O1433  1  0.01193733  0.00676367  0.70868333  1
  O  O1434  1  0.01193733  0.34009700  0.04201667  1
  O  O1435  1  0.01193733  0.34009700  0.37535000  1
  O  O1436  1  0.01193733  0.34009700  0.70868333  1
  O  O1437  1  0.01193733  0.67343033  0.04201667  1
  O  O1438  1  0.01193733  0.67343033  0.37535000  1
  O  O1439  1  0.01193733  0.67343033  0.70868333  1
  O  O1440  1  0.34527067  0.00676367  0.04201667  1
  O  O1441  1  0.34527067  0.00676367  0.37535000  1
  O  O1442  1  0.34527067  0.00676367  0.70868333  1
  O  O1443  1  0.34527067  0.34009700  0.04201667  1
  O  O1444  1  0.34527067  0.34009700  0.37535000  1
  O  O1445  1  0.34527067  0.34009700  0.70868333  1
  O  O1446  1  0.34527067  0.67343033  0.04201667  1
  O  O1447  1  0.34527067  0.67343033  0.37535000  1
  O  O1448  1  0.34527067  0.67343033  0.70868333  1
  O  O1449  1  0.67860400  0.00676367  0.04201667  1
  O  O1450  1  0.67860400  0.00676367  0.37535000  1
  O  O1451  1  0.67860400  0.00676367  0.70868333  1
  O  O1452  1  0.67860400  0.34009700  0.04201667  1
  O  O1453  1  0.67860400  0.34009700  0.37535000  1
  O  O1454  1  0.67860400  0.34009700  0.70868333  1
  O  O1455  1  0.67860400  0.67343033  0.04201667  1
  O  O1456  1  0.67860400  0.67343033  0.37535000  1
  O  O1457  1  0.67860400  0.67343033  0.70868333  1
  O  O1458  1  0.31913433  0.12196967  0.31734933  1
  O  O1459  1  0.31913433  0.12196967  0.65068267  1
  O  O1460  1  0.31913433  0.12196967  0.98401600  1
  O  O1461  1  0.31913433  0.45530300  0.31734933  1
  O  O1462  1  0.31913433  0.45530300  0.65068267  1
  O  O1463  1  0.31913433  0.45530300  0.98401600  1
  O  O1464  1  0.31913433  0.78863633  0.31734933  1
  O  O1465  1  0.31913433  0.78863633  0.65068267  1
  O  O1466  1  0.31913433  0.78863633  0.98401600  1
  O  O1467  1  0.65246767  0.12196967  0.31734933  1
  O  O1468  1  0.65246767  0.12196967  0.65068267  1
  O  O1469  1  0.65246767  0.12196967  0.98401600  1
  O  O1470  1  0.65246767  0.45530300  0.31734933  1
  O  O1471  1  0.65246767  0.45530300  0.65068267  1
  O  O1472  1  0.65246767  0.45530300  0.98401600  1
  O  O1473  1  0.65246767  0.78863633  0.31734933  1
  O  O1474  1  0.65246767  0.78863633  0.65068267  1
  O  O1475  1  0.65246767  0.78863633  0.98401600  1
  O  O1476  1  0.98580100  0.12196967  0.31734933  1
  O  O1477  1  0.98580100  0.12196967  0.65068267  1
  O  O1478  1  0.98580100  0.12196967  0.98401600  1
  O  O1479  1  0.98580100  0.45530300  0.31734933  1
  O  O1480  1  0.98580100  0.45530300  0.65068267  1
  O  O1481  1  0.98580100  0.45530300  0.98401600  1
  O  O1482  1  0.98580100  0.78863633  0.31734933  1
  O  O1483  1  0.98580100  0.78863633  0.65068267  1
  O  O1484  1  0.98580100  0.78863633  0.98401600  1
  O  O1485  1  0.01419900  0.21136367  0.01598400  1
  O  O1486  1  0.01419900  0.21136367  0.34931733  1
  O  O1487  1  0.01419900  0.21136367  0.68265067  1
  O  O1488  1  0.01419900  0.54469700  0.01598400  1
  O  O1489  1  0.01419900  0.54469700  0.34931733  1
  O  O1490  1  0.01419900  0.54469700  0.68265067  1
  O  O1491  1  0.01419900  0.87803033  0.01598400  1
  O  O1492  1  0.01419900  0.87803033  0.34931733  1
  O  O1493  1  0.01419900  0.87803033  0.68265067  1
  O  O1494  1  0.34753233  0.21136367  0.01598400  1
  O  O1495  1  0.34753233  0.21136367  0.34931733  1
  O  O1496  1  0.34753233  0.21136367  0.68265067  1
  O  O1497  1  0.34753233  0.54469700  0.01598400  1
  O  O1498  1  0.34753233  0.54469700  0.34931733  1
  O  O1499  1  0.34753233  0.54469700  0.68265067  1
  O  O1500  1  0.34753233  0.87803033  0.01598400  1
  O  O1501  1  0.34753233  0.87803033  0.34931733  1
  O  O1502  1  0.34753233  0.87803033  0.68265067  1
  O  O1503  1  0.68086567  0.21136367  0.01598400  1
  O  O1504  1  0.68086567  0.21136367  0.34931733  1
  O  O1505  1  0.68086567  0.21136367  0.68265067  1
  O  O1506  1  0.68086567  0.54469700  0.01598400  1
  O  O1507  1  0.68086567  0.54469700  0.34931733  1
  O  O1508  1  0.68086567  0.54469700  0.68265067  1
  O  O1509  1  0.68086567  0.87803033  0.01598400  1
  O  O1510  1  0.68086567  0.87803033  0.34931733  1
  O  O1511  1  0.68086567  0.87803033  0.68265067  1
  O  O1512  1  0.31716500  0.14163033  0.13322200  1
  O  O1513  1  0.31716500  0.14163033  0.46655533  1
  O  O1514  1  0.31716500  0.14163033  0.79988867  1
  O  O1515  1  0.31716500  0.47496367  0.13322200  1
  O  O1516  1  0.31716500  0.47496367  0.46655533  1
  O  O1517  1  0.31716500  0.47496367  0.79988867  1
  O  O1518  1  0.31716500  0.80829700  0.13322200  1
  O  O1519  1  0.31716500  0.80829700  0.46655533  1
  O  O1520  1  0.31716500  0.80829700  0.79988867  1
  O  O1521  1  0.65049833  0.14163033  0.13322200  1
  O  O1522  1  0.65049833  0.14163033  0.46655533  1
  O  O1523  1  0.65049833  0.14163033  0.79988867  1
  O  O1524  1  0.65049833  0.47496367  0.13322200  1
  O  O1525  1  0.65049833  0.47496367  0.46655533  1
  O  O1526  1  0.65049833  0.47496367  0.79988867  1
  O  O1527  1  0.65049833  0.80829700  0.13322200  1
  O  O1528  1  0.65049833  0.80829700  0.46655533  1
  O  O1529  1  0.65049833  0.80829700  0.79988867  1
  O  O1530  1  0.98383167  0.14163033  0.13322200  1
  O  O1531  1  0.98383167  0.14163033  0.46655533  1
  O  O1532  1  0.98383167  0.14163033  0.79988867  1
  O  O1533  1  0.98383167  0.47496367  0.13322200  1
  O  O1534  1  0.98383167  0.47496367  0.46655533  1
  O  O1535  1  0.98383167  0.47496367  0.79988867  1
  O  O1536  1  0.98383167  0.80829700  0.13322200  1
  O  O1537  1  0.98383167  0.80829700  0.46655533  1
  O  O1538  1  0.98383167  0.80829700  0.79988867  1
  O  O1539  1  0.01616833  0.19170300  0.20011133  1
  O  O1540  1  0.01616833  0.19170300  0.53344467  1
  O  O1541  1  0.01616833  0.19170300  0.86677800  1
  O  O1542  1  0.01616833  0.52503633  0.20011133  1
  O  O1543  1  0.01616833  0.52503633  0.53344467  1
  O  O1544  1  0.01616833  0.52503633  0.86677800  1
  O  O1545  1  0.01616833  0.85836967  0.20011133  1
  O  O1546  1  0.01616833  0.85836967  0.53344467  1
  O  O1547  1  0.01616833  0.85836967  0.86677800  1
  O  O1548  1  0.34950167  0.19170300  0.20011133  1
  O  O1549  1  0.34950167  0.19170300  0.53344467  1
  O  O1550  1  0.34950167  0.19170300  0.86677800  1
  O  O1551  1  0.34950167  0.52503633  0.20011133  1
  O  O1552  1  0.34950167  0.52503633  0.53344467  1
  O  O1553  1  0.34950167  0.52503633  0.86677800  1
  O  O1554  1  0.34950167  0.85836967  0.20011133  1
  O  O1555  1  0.34950167  0.85836967  0.53344467  1
  O  O1556  1  0.34950167  0.85836967  0.86677800  1
  O  O1557  1  0.68283500  0.19170300  0.20011133  1
  O  O1558  1  0.68283500  0.19170300  0.53344467  1
  O  O1559  1  0.68283500  0.19170300  0.86677800  1
  O  O1560  1  0.68283500  0.52503633  0.20011133  1
  O  O1561  1  0.68283500  0.52503633  0.53344467  1
  O  O1562  1  0.68283500  0.52503633  0.86677800  1
  O  O1563  1  0.68283500  0.85836967  0.20011133  1
  O  O1564  1  0.68283500  0.85836967  0.53344467  1
  O  O1565  1  0.68283500  0.85836967  0.86677800  1
  O  O1566  1  0.31251867  0.00245833  0.20386800  1
  O  O1567  1  0.31251867  0.00245833  0.53720133  1
  O  O1568  1  0.31251867  0.00245833  0.87053467  1
  O  O1569  1  0.31251867  0.33579167  0.20386800  1
  O  O1570  1  0.31251867  0.33579167  0.53720133  1
  O  O1571  1  0.31251867  0.33579167  0.87053467  1
  O  O1572  1  0.31251867  0.66912500  0.20386800  1
  O  O1573  1  0.31251867  0.66912500  0.53720133  1
  O  O1574  1  0.31251867  0.66912500  0.87053467  1
  O  O1575  1  0.64585200  0.00245833  0.20386800  1
  O  O1576  1  0.64585200  0.00245833  0.53720133  1
  O  O1577  1  0.64585200  0.00245833  0.87053467  1
  O  O1578  1  0.64585200  0.33579167  0.20386800  1
  O  O1579  1  0.64585200  0.33579167  0.53720133  1
  O  O1580  1  0.64585200  0.33579167  0.87053467  1
  O  O1581  1  0.64585200  0.66912500  0.20386800  1
  O  O1582  1  0.64585200  0.66912500  0.53720133  1
  O  O1583  1  0.64585200  0.66912500  0.87053467  1
  O  O1584  1  0.97918533  0.00245833  0.20386800  1
  O  O1585  1  0.97918533  0.00245833  0.53720133  1
  O  O1586  1  0.97918533  0.00245833  0.87053467  1
  O  O1587  1  0.97918533  0.33579167  0.20386800  1
  O  O1588  1  0.97918533  0.33579167  0.53720133  1
  O  O1589  1  0.97918533  0.33579167  0.87053467  1
  O  O1590  1  0.97918533  0.66912500  0.20386800  1
  O  O1591  1  0.97918533  0.66912500  0.53720133  1
  O  O1592  1  0.97918533  0.66912500  0.87053467  1
  O  O1593  1  0.02081467  0.33087500  0.12946533  1
  O  O1594  1  0.02081467  0.33087500  0.46279867  1
  O  O1595  1  0.02081467  0.33087500  0.79613200  1
  O  O1596  1  0.02081467  0.66420833  0.12946533  1
  O  O1597  1  0.02081467  0.66420833  0.46279867  1
  O  O1598  1  0.02081467  0.66420833  0.79613200  1
  O  O1599  1  0.02081467  0.99754167  0.12946533  1
  O  O1600  1  0.02081467  0.99754167  0.46279867  1
  O  O1601  1  0.02081467  0.99754167  0.79613200  1
  O  O1602  1  0.35414800  0.33087500  0.12946533  1
  O  O1603  1  0.35414800  0.33087500  0.46279867  1
  O  O1604  1  0.35414800  0.33087500  0.79613200  1
  O  O1605  1  0.35414800  0.66420833  0.12946533  1
  O  O1606  1  0.35414800  0.66420833  0.46279867  1
  O  O1607  1  0.35414800  0.66420833  0.79613200  1
  O  O1608  1  0.35414800  0.99754167  0.12946533  1
  O  O1609  1  0.35414800  0.99754167  0.46279867  1
  O  O1610  1  0.35414800  0.99754167  0.79613200  1
  O  O1611  1  0.68748133  0.33087500  0.12946533  1
  O  O1612  1  0.68748133  0.33087500  0.46279867  1
  O  O1613  1  0.68748133  0.33087500  0.79613200  1
  O  O1614  1  0.68748133  0.66420833  0.12946533  1
  O  O1615  1  0.68748133  0.66420833  0.46279867  1
  O  O1616  1  0.68748133  0.66420833  0.79613200  1
  O  O1617  1  0.68748133  0.99754167  0.12946533  1
  O  O1618  1  0.68748133  0.99754167  0.46279867  1
  O  O1619  1  0.68748133  0.99754167  0.79613200  1
  O  O1620  1  0.31079900  0.27330233  0.09963167  1
  O  O1621  1  0.31079900  0.27330233  0.43296500  1
  O  O1622  1  0.31079900  0.27330233  0.76629833  1
  O  O1623  1  0.31079900  0.60663567  0.09963167  1
  O  O1624  1  0.31079900  0.60663567  0.43296500  1
  O  O1625  1  0.31079900  0.60663567  0.76629833  1
  O  O1626  1  0.31079900  0.93996900  0.09963167  1
  O  O1627  1  0.31079900  0.93996900  0.43296500  1
  O  O1628  1  0.31079900  0.93996900  0.76629833  1
  O  O1629  1  0.64413233  0.27330233  0.09963167  1
  O  O1630  1  0.64413233  0.27330233  0.43296500  1
  O  O1631  1  0.64413233  0.27330233  0.76629833  1
  O  O1632  1  0.64413233  0.60663567  0.09963167  1
  O  O1633  1  0.64413233  0.60663567  0.43296500  1
  O  O1634  1  0.64413233  0.60663567  0.76629833  1
  O  O1635  1  0.64413233  0.93996900  0.09963167  1
  O  O1636  1  0.64413233  0.93996900  0.43296500  1
  O  O1637  1  0.64413233  0.93996900  0.76629833  1
  O  O1638  1  0.97746567  0.27330233  0.09963167  1
  O  O1639  1  0.97746567  0.27330233  0.43296500  1
  O  O1640  1  0.97746567  0.27330233  0.76629833  1
  O  O1641  1  0.97746567  0.60663567  0.09963167  1
  O  O1642  1  0.97746567  0.60663567  0.43296500  1
  O  O1643  1  0.97746567  0.60663567  0.76629833  1
  O  O1644  1  0.97746567  0.93996900  0.09963167  1
  O  O1645  1  0.97746567  0.93996900  0.43296500  1
  O  O1646  1  0.97746567  0.93996900  0.76629833  1
  O  O1647  1  0.02253433  0.06003100  0.23370167  1
  O  O1648  1  0.02253433  0.06003100  0.56703500  1
  O  O1649  1  0.02253433  0.06003100  0.90036833  1
  O  O1650  1  0.02253433  0.39336433  0.23370167  1
  O  O1651  1  0.02253433  0.39336433  0.56703500  1
  O  O1652  1  0.02253433  0.39336433  0.90036833  1
  O  O1653  1  0.02253433  0.72669767  0.23370167  1
  O  O1654  1  0.02253433  0.72669767  0.56703500  1
  O  O1655  1  0.02253433  0.72669767  0.90036833  1
  O  O1656  1  0.35586767  0.06003100  0.23370167  1
  O  O1657  1  0.35586767  0.06003100  0.56703500  1
  O  O1658  1  0.35586767  0.06003100  0.90036833  1
  O  O1659  1  0.35586767  0.39336433  0.23370167  1
  O  O1660  1  0.35586767  0.39336433  0.56703500  1
  O  O1661  1  0.35586767  0.39336433  0.90036833  1
  O  O1662  1  0.35586767  0.72669767  0.23370167  1
  O  O1663  1  0.35586767  0.72669767  0.56703500  1
  O  O1664  1  0.35586767  0.72669767  0.90036833  1
  O  O1665  1  0.68920100  0.06003100  0.23370167  1
  O  O1666  1  0.68920100  0.06003100  0.56703500  1
  O  O1667  1  0.68920100  0.06003100  0.90036833  1
  O  O1668  1  0.68920100  0.39336433  0.23370167  1
  O  O1669  1  0.68920100  0.39336433  0.56703500  1
  O  O1670  1  0.68920100  0.39336433  0.90036833  1
  O  O1671  1  0.68920100  0.72669767  0.23370167  1
  O  O1672  1  0.68920100  0.72669767  0.56703500  1
  O  O1673  1  0.68920100  0.72669767  0.90036833  1
  O  O1674  1  0.31032233  0.14819867  0.04290233  1
  O  O1675  1  0.31032233  0.14819867  0.37623567  1
  O  O1676  1  0.31032233  0.14819867  0.70956900  1
  O  O1677  1  0.31032233  0.48153200  0.04290233  1
  O  O1678  1  0.31032233  0.48153200  0.37623567  1
  O  O1679  1  0.31032233  0.48153200  0.70956900  1
  O  O1680  1  0.31032233  0.81486533  0.04290233  1
  O  O1681  1  0.31032233  0.81486533  0.37623567  1
  O  O1682  1  0.31032233  0.81486533  0.70956900  1
  O  O1683  1  0.64365567  0.14819867  0.04290233  1
  O  O1684  1  0.64365567  0.14819867  0.37623567  1
  O  O1685  1  0.64365567  0.14819867  0.70956900  1
  O  O1686  1  0.64365567  0.48153200  0.04290233  1
  O  O1687  1  0.64365567  0.48153200  0.37623567  1
  O  O1688  1  0.64365567  0.48153200  0.70956900  1
  O  O1689  1  0.64365567  0.81486533  0.04290233  1
  O  O1690  1  0.64365567  0.81486533  0.37623567  1
  O  O1691  1  0.64365567  0.81486533  0.70956900  1
  O  O1692  1  0.97698900  0.14819867  0.04290233  1
  O  O1693  1  0.97698900  0.14819867  0.37623567  1
  O  O1694  1  0.97698900  0.14819867  0.70956900  1
  O  O1695  1  0.97698900  0.48153200  0.04290233  1
  O  O1696  1  0.97698900  0.48153200  0.37623567  1
  O  O1697  1  0.97698900  0.48153200  0.70956900  1
  O  O1698  1  0.97698900  0.81486533  0.04290233  1
  O  O1699  1  0.97698900  0.81486533  0.37623567  1
  O  O1700  1  0.97698900  0.81486533  0.70956900  1
  O  O1701  1  0.02301100  0.18513467  0.29043100  1
  O  O1702  1  0.02301100  0.18513467  0.62376433  1
  O  O1703  1  0.02301100  0.18513467  0.95709767  1
  O  O1704  1  0.02301100  0.51846800  0.29043100  1
  O  O1705  1  0.02301100  0.51846800  0.62376433  1
  O  O1706  1  0.02301100  0.51846800  0.95709767  1
  O  O1707  1  0.02301100  0.85180133  0.29043100  1
  O  O1708  1  0.02301100  0.85180133  0.62376433  1
  O  O1709  1  0.02301100  0.85180133  0.95709767  1
  O  O1710  1  0.35634433  0.18513467  0.29043100  1
  O  O1711  1  0.35634433  0.18513467  0.62376433  1
  O  O1712  1  0.35634433  0.18513467  0.95709767  1
  O  O1713  1  0.35634433  0.51846800  0.29043100  1
  O  O1714  1  0.35634433  0.51846800  0.62376433  1
  O  O1715  1  0.35634433  0.51846800  0.95709767  1
  O  O1716  1  0.35634433  0.85180133  0.29043100  1
  O  O1717  1  0.35634433  0.85180133  0.62376433  1
  O  O1718  1  0.35634433  0.85180133  0.95709767  1
  O  O1719  1  0.68967767  0.18513467  0.29043100  1
  O  O1720  1  0.68967767  0.18513467  0.62376433  1
  O  O1721  1  0.68967767  0.18513467  0.95709767  1
  O  O1722  1  0.68967767  0.51846800  0.29043100  1
  O  O1723  1  0.68967767  0.51846800  0.62376433  1
  O  O1724  1  0.68967767  0.51846800  0.95709767  1
  O  O1725  1  0.68967767  0.85180133  0.29043100  1
  O  O1726  1  0.68967767  0.85180133  0.62376433  1
  O  O1727  1  0.68967767  0.85180133  0.95709767  1
  O  O1728  1  0.30501333  0.13559100  0.25581667  1
  O  O1729  1  0.30501333  0.13559100  0.58915000  1
  O  O1730  1  0.30501333  0.13559100  0.92248333  1
  O  O1731  1  0.30501333  0.46892433  0.25581667  1
  O  O1732  1  0.30501333  0.46892433  0.58915000  1
  O  O1733  1  0.30501333  0.46892433  0.92248333  1
  O  O1734  1  0.30501333  0.80225767  0.25581667  1
  O  O1735  1  0.30501333  0.80225767  0.58915000  1
  O  O1736  1  0.30501333  0.80225767  0.92248333  1
  O  O1737  1  0.63834667  0.13559100  0.25581667  1
  O  O1738  1  0.63834667  0.13559100  0.58915000  1
  O  O1739  1  0.63834667  0.13559100  0.92248333  1
  O  O1740  1  0.63834667  0.46892433  0.25581667  1
  O  O1741  1  0.63834667  0.46892433  0.58915000  1
  O  O1742  1  0.63834667  0.46892433  0.92248333  1
  O  O1743  1  0.63834667  0.80225767  0.25581667  1
  O  O1744  1  0.63834667  0.80225767  0.58915000  1
  O  O1745  1  0.63834667  0.80225767  0.92248333  1
  O  O1746  1  0.97168000  0.13559100  0.25581667  1
  O  O1747  1  0.97168000  0.13559100  0.58915000  1
  O  O1748  1  0.97168000  0.13559100  0.92248333  1
  O  O1749  1  0.97168000  0.46892433  0.25581667  1
  O  O1750  1  0.97168000  0.46892433  0.58915000  1
  O  O1751  1  0.97168000  0.46892433  0.92248333  1
  O  O1752  1  0.97168000  0.80225767  0.25581667  1
  O  O1753  1  0.97168000  0.80225767  0.58915000  1
  O  O1754  1  0.97168000  0.80225767  0.92248333  1
  O  O1755  1  0.02832000  0.19774233  0.07751667  1
  O  O1756  1  0.02832000  0.19774233  0.41085000  1
  O  O1757  1  0.02832000  0.19774233  0.74418333  1
  O  O1758  1  0.02832000  0.53107567  0.07751667  1
  O  O1759  1  0.02832000  0.53107567  0.41085000  1
  O  O1760  1  0.02832000  0.53107567  0.74418333  1
  O  O1761  1  0.02832000  0.86440900  0.07751667  1
  O  O1762  1  0.02832000  0.86440900  0.41085000  1
  O  O1763  1  0.02832000  0.86440900  0.74418333  1
  O  O1764  1  0.36165333  0.19774233  0.07751667  1
  O  O1765  1  0.36165333  0.19774233  0.41085000  1
  O  O1766  1  0.36165333  0.19774233  0.74418333  1
  O  O1767  1  0.36165333  0.53107567  0.07751667  1
  O  O1768  1  0.36165333  0.53107567  0.41085000  1
  O  O1769  1  0.36165333  0.53107567  0.74418333  1
  O  O1770  1  0.36165333  0.86440900  0.07751667  1
  O  O1771  1  0.36165333  0.86440900  0.41085000  1
  O  O1772  1  0.36165333  0.86440900  0.74418333  1
  O  O1773  1  0.69498667  0.19774233  0.07751667  1
  O  O1774  1  0.69498667  0.19774233  0.41085000  1
  O  O1775  1  0.69498667  0.19774233  0.74418333  1
  O  O1776  1  0.69498667  0.53107567  0.07751667  1
  O  O1777  1  0.69498667  0.53107567  0.41085000  1
  O  O1778  1  0.69498667  0.53107567  0.74418333  1
  O  O1779  1  0.69498667  0.86440900  0.07751667  1
  O  O1780  1  0.69498667  0.86440900  0.41085000  1
  O  O1781  1  0.69498667  0.86440900  0.74418333  1
  O  O1782  1  0.27567600  0.29926267  0.15593333  1
  O  O1783  1  0.27567600  0.29926267  0.48926667  1
  O  O1784  1  0.27567600  0.29926267  0.82260000  1
  O  O1785  1  0.27567600  0.63259600  0.15593333  1
  O  O1786  1  0.27567600  0.63259600  0.48926667  1
  O  O1787  1  0.27567600  0.63259600  0.82260000  1
  O  O1788  1  0.27567600  0.96592933  0.15593333  1
  O  O1789  1  0.27567600  0.96592933  0.48926667  1
  O  O1790  1  0.27567600  0.96592933  0.82260000  1
  O  O1791  1  0.60900933  0.29926267  0.15593333  1
  O  O1792  1  0.60900933  0.29926267  0.48926667  1
  O  O1793  1  0.60900933  0.29926267  0.82260000  1
  O  O1794  1  0.60900933  0.63259600  0.15593333  1
  O  O1795  1  0.60900933  0.63259600  0.48926667  1
  O  O1796  1  0.60900933  0.63259600  0.82260000  1
  O  O1797  1  0.60900933  0.96592933  0.15593333  1
  O  O1798  1  0.60900933  0.96592933  0.48926667  1
  O  O1799  1  0.60900933  0.96592933  0.82260000  1
  O  O1800  1  0.94234267  0.29926267  0.15593333  1
  O  O1801  1  0.94234267  0.29926267  0.48926667  1
  O  O1802  1  0.94234267  0.29926267  0.82260000  1
  O  O1803  1  0.94234267  0.63259600  0.15593333  1
  O  O1804  1  0.94234267  0.63259600  0.48926667  1
  O  O1805  1  0.94234267  0.63259600  0.82260000  1
  O  O1806  1  0.94234267  0.96592933  0.15593333  1
  O  O1807  1  0.94234267  0.96592933  0.48926667  1
  O  O1808  1  0.94234267  0.96592933  0.82260000  1
  O  O1809  1  0.05765733  0.03407067  0.17740000  1
  O  O1810  1  0.05765733  0.03407067  0.51073333  1
  O  O1811  1  0.05765733  0.03407067  0.84406667  1
  O  O1812  1  0.05765733  0.36740400  0.17740000  1
  O  O1813  1  0.05765733  0.36740400  0.51073333  1
  O  O1814  1  0.05765733  0.36740400  0.84406667  1
  O  O1815  1  0.05765733  0.70073733  0.17740000  1
  O  O1816  1  0.05765733  0.70073733  0.51073333  1
  O  O1817  1  0.05765733  0.70073733  0.84406667  1
  O  O1818  1  0.39099067  0.03407067  0.17740000  1
  O  O1819  1  0.39099067  0.03407067  0.51073333  1
  O  O1820  1  0.39099067  0.03407067  0.84406667  1
  O  O1821  1  0.39099067  0.36740400  0.17740000  1
  O  O1822  1  0.39099067  0.36740400  0.51073333  1
  O  O1823  1  0.39099067  0.36740400  0.84406667  1
  O  O1824  1  0.39099067  0.70073733  0.17740000  1
  O  O1825  1  0.39099067  0.70073733  0.51073333  1
  O  O1826  1  0.39099067  0.70073733  0.84406667  1
  O  O1827  1  0.72432400  0.03407067  0.17740000  1
  O  O1828  1  0.72432400  0.03407067  0.51073333  1
  O  O1829  1  0.72432400  0.03407067  0.84406667  1
  O  O1830  1  0.72432400  0.36740400  0.17740000  1
  O  O1831  1  0.72432400  0.36740400  0.51073333  1
  O  O1832  1  0.72432400  0.36740400  0.84406667  1
  O  O1833  1  0.72432400  0.70073733  0.17740000  1
  O  O1834  1  0.72432400  0.70073733  0.51073333  1
  O  O1835  1  0.72432400  0.70073733  0.84406667  1
  O  O1836  1  0.26741700  0.21442667  0.21169567  1
  O  O1837  1  0.26741700  0.21442667  0.54502900  1
  O  O1838  1  0.26741700  0.21442667  0.87836233  1
  O  O1839  1  0.26741700  0.54776000  0.21169567  1
  O  O1840  1  0.26741700  0.54776000  0.54502900  1
  O  O1841  1  0.26741700  0.54776000  0.87836233  1
  O  O1842  1  0.26741700  0.88109333  0.21169567  1
  O  O1843  1  0.26741700  0.88109333  0.54502900  1
  O  O1844  1  0.26741700  0.88109333  0.87836233  1
  O  O1845  1  0.60075033  0.21442667  0.21169567  1
  O  O1846  1  0.60075033  0.21442667  0.54502900  1
  O  O1847  1  0.60075033  0.21442667  0.87836233  1
  O  O1848  1  0.60075033  0.54776000  0.21169567  1
  O  O1849  1  0.60075033  0.54776000  0.54502900  1
  O  O1850  1  0.60075033  0.54776000  0.87836233  1
  O  O1851  1  0.60075033  0.88109333  0.21169567  1
  O  O1852  1  0.60075033  0.88109333  0.54502900  1
  O  O1853  1  0.60075033  0.88109333  0.87836233  1
  O  O1854  1  0.93408367  0.21442667  0.21169567  1
  O  O1855  1  0.93408367  0.21442667  0.54502900  1
  O  O1856  1  0.93408367  0.21442667  0.87836233  1
  O  O1857  1  0.93408367  0.54776000  0.21169567  1
  O  O1858  1  0.93408367  0.54776000  0.54502900  1
  O  O1859  1  0.93408367  0.54776000  0.87836233  1
  O  O1860  1  0.93408367  0.88109333  0.21169567  1
  O  O1861  1  0.93408367  0.88109333  0.54502900  1
  O  O1862  1  0.93408367  0.88109333  0.87836233  1
  O  O1863  1  0.06591633  0.11890667  0.12163767  1
  O  O1864  1  0.06591633  0.11890667  0.45497100  1
  O  O1865  1  0.06591633  0.11890667  0.78830433  1
  O  O1866  1  0.06591633  0.45224000  0.12163767  1
  O  O1867  1  0.06591633  0.45224000  0.45497100  1
  O  O1868  1  0.06591633  0.45224000  0.78830433  1
  O  O1869  1  0.06591633  0.78557333  0.12163767  1
  O  O1870  1  0.06591633  0.78557333  0.45497100  1
  O  O1871  1  0.06591633  0.78557333  0.78830433  1
  O  O1872  1  0.39924967  0.11890667  0.12163767  1
  O  O1873  1  0.39924967  0.11890667  0.45497100  1
  O  O1874  1  0.39924967  0.11890667  0.78830433  1
  O  O1875  1  0.39924967  0.45224000  0.12163767  1
  O  O1876  1  0.39924967  0.45224000  0.45497100  1
  O  O1877  1  0.39924967  0.45224000  0.78830433  1
  O  O1878  1  0.39924967  0.78557333  0.12163767  1
  O  O1879  1  0.39924967  0.78557333  0.45497100  1
  O  O1880  1  0.39924967  0.78557333  0.78830433  1
  O  O1881  1  0.73258300  0.11890667  0.12163767  1
  O  O1882  1  0.73258300  0.11890667  0.45497100  1
  O  O1883  1  0.73258300  0.11890667  0.78830433  1
  O  O1884  1  0.73258300  0.45224000  0.12163767  1
  O  O1885  1  0.73258300  0.45224000  0.45497100  1
  O  O1886  1  0.73258300  0.45224000  0.78830433  1
  O  O1887  1  0.73258300  0.78557333  0.12163767  1
  O  O1888  1  0.73258300  0.78557333  0.45497100  1
  O  O1889  1  0.73258300  0.78557333  0.78830433  1
  O  O1890  1  0.26067400  0.18155833  0.30084633  1
  O  O1891  1  0.26067400  0.18155833  0.63417967  1
  O  O1892  1  0.26067400  0.18155833  0.96751300  1
  O  O1893  1  0.26067400  0.51489167  0.30084633  1
  O  O1894  1  0.26067400  0.51489167  0.63417967  1
  O  O1895  1  0.26067400  0.51489167  0.96751300  1
  O  O1896  1  0.26067400  0.84822500  0.30084633  1
  O  O1897  1  0.26067400  0.84822500  0.63417967  1
  O  O1898  1  0.26067400  0.84822500  0.96751300  1
  O  O1899  1  0.59400733  0.18155833  0.30084633  1
  O  O1900  1  0.59400733  0.18155833  0.63417967  1
  O  O1901  1  0.59400733  0.18155833  0.96751300  1
  O  O1902  1  0.59400733  0.51489167  0.30084633  1
  O  O1903  1  0.59400733  0.51489167  0.63417967  1
  O  O1904  1  0.59400733  0.51489167  0.96751300  1
  O  O1905  1  0.59400733  0.84822500  0.30084633  1
  O  O1906  1  0.59400733  0.84822500  0.63417967  1
  O  O1907  1  0.59400733  0.84822500  0.96751300  1
  O  O1908  1  0.92734067  0.18155833  0.30084633  1
  O  O1909  1  0.92734067  0.18155833  0.63417967  1
  O  O1910  1  0.92734067  0.18155833  0.96751300  1
  O  O1911  1  0.92734067  0.51489167  0.30084633  1
  O  O1912  1  0.92734067  0.51489167  0.63417967  1
  O  O1913  1  0.92734067  0.51489167  0.96751300  1
  O  O1914  1  0.92734067  0.84822500  0.30084633  1
  O  O1915  1  0.92734067  0.84822500  0.63417967  1
  O  O1916  1  0.92734067  0.84822500  0.96751300  1
  O  O1917  1  0.07265933  0.15177500  0.03248700  1
  O  O1918  1  0.07265933  0.15177500  0.36582033  1
  O  O1919  1  0.07265933  0.15177500  0.69915367  1
  O  O1920  1  0.07265933  0.48510833  0.03248700  1
  O  O1921  1  0.07265933  0.48510833  0.36582033  1
  O  O1922  1  0.07265933  0.48510833  0.69915367  1
  O  O1923  1  0.07265933  0.81844167  0.03248700  1
  O  O1924  1  0.07265933  0.81844167  0.36582033  1
  O  O1925  1  0.07265933  0.81844167  0.69915367  1
  O  O1926  1  0.40599267  0.15177500  0.03248700  1
  O  O1927  1  0.40599267  0.15177500  0.36582033  1
  O  O1928  1  0.40599267  0.15177500  0.69915367  1
  O  O1929  1  0.40599267  0.48510833  0.03248700  1
  O  O1930  1  0.40599267  0.48510833  0.36582033  1
  O  O1931  1  0.40599267  0.48510833  0.69915367  1
  O  O1932  1  0.40599267  0.81844167  0.03248700  1
  O  O1933  1  0.40599267  0.81844167  0.36582033  1
  O  O1934  1  0.40599267  0.81844167  0.69915367  1
  O  O1935  1  0.73932600  0.15177500  0.03248700  1
  O  O1936  1  0.73932600  0.15177500  0.36582033  1
  O  O1937  1  0.73932600  0.15177500  0.69915367  1
  O  O1938  1  0.73932600  0.48510833  0.03248700  1
  O  O1939  1  0.73932600  0.48510833  0.36582033  1
  O  O1940  1  0.73932600  0.48510833  0.69915367  1
  O  O1941  1  0.73932600  0.81844167  0.03248700  1
  O  O1942  1  0.73932600  0.81844167  0.36582033  1
  O  O1943  1  0.73932600  0.81844167  0.69915367  1
  O  O1944  1  0.25161267  0.03069933  0.27006167  1
  O  O1945  1  0.25161267  0.03069933  0.60339500  1
  O  O1946  1  0.25161267  0.03069933  0.93672833  1
  O  O1947  1  0.25161267  0.36403267  0.27006167  1
  O  O1948  1  0.25161267  0.36403267  0.60339500  1
  O  O1949  1  0.25161267  0.36403267  0.93672833  1
  O  O1950  1  0.25161267  0.69736600  0.27006167  1
  O  O1951  1  0.25161267  0.69736600  0.60339500  1
  O  O1952  1  0.25161267  0.69736600  0.93672833  1
  O  O1953  1  0.58494600  0.03069933  0.27006167  1
  O  O1954  1  0.58494600  0.03069933  0.60339500  1
  O  O1955  1  0.58494600  0.03069933  0.93672833  1
  O  O1956  1  0.58494600  0.36403267  0.27006167  1
  O  O1957  1  0.58494600  0.36403267  0.60339500  1
  O  O1958  1  0.58494600  0.36403267  0.93672833  1
  O  O1959  1  0.58494600  0.69736600  0.27006167  1
  O  O1960  1  0.58494600  0.69736600  0.60339500  1
  O  O1961  1  0.58494600  0.69736600  0.93672833  1
  O  O1962  1  0.91827933  0.03069933  0.27006167  1
  O  O1963  1  0.91827933  0.03069933  0.60339500  1
  O  O1964  1  0.91827933  0.03069933  0.93672833  1
  O  O1965  1  0.91827933  0.36403267  0.27006167  1
  O  O1966  1  0.91827933  0.36403267  0.60339500  1
  O  O1967  1  0.91827933  0.36403267  0.93672833  1
  O  O1968  1  0.91827933  0.69736600  0.27006167  1
  O  O1969  1  0.91827933  0.69736600  0.60339500  1
  O  O1970  1  0.91827933  0.69736600  0.93672833  1
  O  O1971  1  0.08172067  0.30263400  0.06327167  1
  O  O1972  1  0.08172067  0.30263400  0.39660500  1
  O  O1973  1  0.08172067  0.30263400  0.72993833  1
  O  O1974  1  0.08172067  0.63596733  0.06327167  1
  O  O1975  1  0.08172067  0.63596733  0.39660500  1
  O  O1976  1  0.08172067  0.63596733  0.72993833  1
  O  O1977  1  0.08172067  0.96930067  0.06327167  1
  O  O1978  1  0.08172067  0.96930067  0.39660500  1
  O  O1979  1  0.08172067  0.96930067  0.72993833  1
  O  O1980  1  0.41505400  0.30263400  0.06327167  1
  O  O1981  1  0.41505400  0.30263400  0.39660500  1
  O  O1982  1  0.41505400  0.30263400  0.72993833  1
  O  O1983  1  0.41505400  0.63596733  0.06327167  1
  O  O1984  1  0.41505400  0.63596733  0.39660500  1
  O  O1985  1  0.41505400  0.63596733  0.72993833  1
  O  O1986  1  0.41505400  0.96930067  0.06327167  1
  O  O1987  1  0.41505400  0.96930067  0.39660500  1
  O  O1988  1  0.41505400  0.96930067  0.72993833  1
  O  O1989  1  0.74838733  0.30263400  0.06327167  1
  O  O1990  1  0.74838733  0.30263400  0.39660500  1
  O  O1991  1  0.74838733  0.30263400  0.72993833  1
  O  O1992  1  0.74838733  0.63596733  0.06327167  1
  O  O1993  1  0.74838733  0.63596733  0.39660500  1
  O  O1994  1  0.74838733  0.63596733  0.72993833  1
  O  O1995  1  0.74838733  0.96930067  0.06327167  1
  O  O1996  1  0.74838733  0.96930067  0.39660500  1
  O  O1997  1  0.74838733  0.96930067  0.72993833  1
  O  O1998  1  0.25047700  0.18776100  0.13269567  1
  O  O1999  1  0.25047700  0.18776100  0.46602900  1
  O  O2000  1  0.25047700  0.18776100  0.79936233  1
  O  O2001  1  0.25047700  0.52109433  0.13269567  1
  O  O2002  1  0.25047700  0.52109433  0.46602900  1
  O  O2003  1  0.25047700  0.52109433  0.79936233  1
  O  O2004  1  0.25047700  0.85442767  0.13269567  1
  O  O2005  1  0.25047700  0.85442767  0.46602900  1
  O  O2006  1  0.25047700  0.85442767  0.79936233  1
  O  O2007  1  0.58381033  0.18776100  0.13269567  1
  O  O2008  1  0.58381033  0.18776100  0.46602900  1
  O  O2009  1  0.58381033  0.18776100  0.79936233  1
  O  O2010  1  0.58381033  0.52109433  0.13269567  1
  O  O2011  1  0.58381033  0.52109433  0.46602900  1
  O  O2012  1  0.58381033  0.52109433  0.79936233  1
  O  O2013  1  0.58381033  0.85442767  0.13269567  1
  O  O2014  1  0.58381033  0.85442767  0.46602900  1
  O  O2015  1  0.58381033  0.85442767  0.79936233  1
  O  O2016  1  0.91714367  0.18776100  0.13269567  1
  O  O2017  1  0.91714367  0.18776100  0.46602900  1
  O  O2018  1  0.91714367  0.18776100  0.79936233  1
  O  O2019  1  0.91714367  0.52109433  0.13269567  1
  O  O2020  1  0.91714367  0.52109433  0.46602900  1
  O  O2021  1  0.91714367  0.52109433  0.79936233  1
  O  O2022  1  0.91714367  0.85442767  0.13269567  1
  O  O2023  1  0.91714367  0.85442767  0.46602900  1
  O  O2024  1  0.91714367  0.85442767  0.79936233  1
  O  O2025  1  0.08285633  0.14557233  0.20063767  1
  O  O2026  1  0.08285633  0.14557233  0.53397100  1
  O  O2027  1  0.08285633  0.14557233  0.86730433  1
  O  O2028  1  0.08285633  0.47890567  0.20063767  1
  O  O2029  1  0.08285633  0.47890567  0.53397100  1
  O  O2030  1  0.08285633  0.47890567  0.86730433  1
  O  O2031  1  0.08285633  0.81223900  0.20063767  1
  O  O2032  1  0.08285633  0.81223900  0.53397100  1
  O  O2033  1  0.08285633  0.81223900  0.86730433  1
  O  O2034  1  0.41618967  0.14557233  0.20063767  1
  O  O2035  1  0.41618967  0.14557233  0.53397100  1
  O  O2036  1  0.41618967  0.14557233  0.86730433  1
  O  O2037  1  0.41618967  0.47890567  0.20063767  1
  O  O2038  1  0.41618967  0.47890567  0.53397100  1
  O  O2039  1  0.41618967  0.47890567  0.86730433  1
  O  O2040  1  0.41618967  0.81223900  0.20063767  1
  O  O2041  1  0.41618967  0.81223900  0.53397100  1
  O  O2042  1  0.41618967  0.81223900  0.86730433  1
  O  O2043  1  0.74952300  0.14557233  0.20063767  1
  O  O2044  1  0.74952300  0.14557233  0.53397100  1
  O  O2045  1  0.74952300  0.14557233  0.86730433  1
  O  O2046  1  0.74952300  0.47890567  0.20063767  1
  O  O2047  1  0.74952300  0.47890567  0.53397100  1
  O  O2048  1  0.74952300  0.47890567  0.86730433  1
  O  O2049  1  0.74952300  0.81223900  0.20063767  1
  O  O2050  1  0.74952300  0.81223900  0.53397100  1
  O  O2051  1  0.74952300  0.81223900  0.86730433  1
  O  O2052  1  0.24675833  0.28622633  0.21095667  1
  O  O2053  1  0.24675833  0.28622633  0.54429000  1
  O  O2054  1  0.24675833  0.28622633  0.87762333  1
  O  O2055  1  0.24675833  0.61955967  0.21095667  1
  O  O2056  1  0.24675833  0.61955967  0.54429000  1
  O  O2057  1  0.24675833  0.61955967  0.87762333  1
  O  O2058  1  0.24675833  0.95289300  0.21095667  1
  O  O2059  1  0.24675833  0.95289300  0.54429000  1
  O  O2060  1  0.24675833  0.95289300  0.87762333  1
  O  O2061  1  0.58009167  0.28622633  0.21095667  1
  O  O2062  1  0.58009167  0.28622633  0.54429000  1
  O  O2063  1  0.58009167  0.28622633  0.87762333  1
  O  O2064  1  0.58009167  0.61955967  0.21095667  1
  O  O2065  1  0.58009167  0.61955967  0.54429000  1
  O  O2066  1  0.58009167  0.61955967  0.87762333  1
  O  O2067  1  0.58009167  0.95289300  0.21095667  1
  O  O2068  1  0.58009167  0.95289300  0.54429000  1
  O  O2069  1  0.58009167  0.95289300  0.87762333  1
  O  O2070  1  0.91342500  0.28622633  0.21095667  1
  O  O2071  1  0.91342500  0.28622633  0.54429000  1
  O  O2072  1  0.91342500  0.28622633  0.87762333  1
  O  O2073  1  0.91342500  0.61955967  0.21095667  1
  O  O2074  1  0.91342500  0.61955967  0.54429000  1
  O  O2075  1  0.91342500  0.61955967  0.87762333  1
  O  O2076  1  0.91342500  0.95289300  0.21095667  1
  O  O2077  1  0.91342500  0.95289300  0.54429000  1
  O  O2078  1  0.91342500  0.95289300  0.87762333  1
  O  O2079  1  0.08657500  0.04710700  0.12237667  1
  O  O2080  1  0.08657500  0.04710700  0.45571000  1
  O  O2081  1  0.08657500  0.04710700  0.78904333  1
  O  O2082  1  0.08657500  0.38044033  0.12237667  1
  O  O2083  1  0.08657500  0.38044033  0.45571000  1
  O  O2084  1  0.08657500  0.38044033  0.78904333  1
  O  O2085  1  0.08657500  0.71377367  0.12237667  1
  O  O2086  1  0.08657500  0.71377367  0.45571000  1
  O  O2087  1  0.08657500  0.71377367  0.78904333  1
  O  O2088  1  0.41990833  0.04710700  0.12237667  1
  O  O2089  1  0.41990833  0.04710700  0.45571000  1
  O  O2090  1  0.41990833  0.04710700  0.78904333  1
  O  O2091  1  0.41990833  0.38044033  0.12237667  1
  O  O2092  1  0.41990833  0.38044033  0.45571000  1
  O  O2093  1  0.41990833  0.38044033  0.78904333  1
  O  O2094  1  0.41990833  0.71377367  0.12237667  1
  O  O2095  1  0.41990833  0.71377367  0.45571000  1
  O  O2096  1  0.41990833  0.71377367  0.78904333  1
  O  O2097  1  0.75324167  0.04710700  0.12237667  1
  O  O2098  1  0.75324167  0.04710700  0.45571000  1
  O  O2099  1  0.75324167  0.04710700  0.78904333  1
  O  O2100  1  0.75324167  0.38044033  0.12237667  1
  O  O2101  1  0.75324167  0.38044033  0.45571000  1
  O  O2102  1  0.75324167  0.38044033  0.78904333  1
  O  O2103  1  0.75324167  0.71377367  0.12237667  1
  O  O2104  1  0.75324167  0.71377367  0.45571000  1
  O  O2105  1  0.75324167  0.71377367  0.78904333  1
  O  O2106  1  0.24451033  0.09386233  0.20663967  1
  O  O2107  1  0.24451033  0.09386233  0.53997300  1
  O  O2108  1  0.24451033  0.09386233  0.87330633  1
  O  O2109  1  0.24451033  0.42719567  0.20663967  1
  O  O2110  1  0.24451033  0.42719567  0.53997300  1
  O  O2111  1  0.24451033  0.42719567  0.87330633  1
  O  O2112  1  0.24451033  0.76052900  0.20663967  1
  O  O2113  1  0.24451033  0.76052900  0.53997300  1
  O  O2114  1  0.24451033  0.76052900  0.87330633  1
  O  O2115  1  0.57784367  0.09386233  0.20663967  1
  O  O2116  1  0.57784367  0.09386233  0.53997300  1
  O  O2117  1  0.57784367  0.09386233  0.87330633  1
  O  O2118  1  0.57784367  0.42719567  0.20663967  1
  O  O2119  1  0.57784367  0.42719567  0.53997300  1
  O  O2120  1  0.57784367  0.42719567  0.87330633  1
  O  O2121  1  0.57784367  0.76052900  0.20663967  1
  O  O2122  1  0.57784367  0.76052900  0.53997300  1
  O  O2123  1  0.57784367  0.76052900  0.87330633  1
  O  O2124  1  0.91117700  0.09386233  0.20663967  1
  O  O2125  1  0.91117700  0.09386233  0.53997300  1
  O  O2126  1  0.91117700  0.09386233  0.87330633  1
  O  O2127  1  0.91117700  0.42719567  0.20663967  1
  O  O2128  1  0.91117700  0.42719567  0.53997300  1
  O  O2129  1  0.91117700  0.42719567  0.87330633  1
  O  O2130  1  0.91117700  0.76052900  0.20663967  1
  O  O2131  1  0.91117700  0.76052900  0.53997300  1
  O  O2132  1  0.91117700  0.76052900  0.87330633  1
  O  O2133  1  0.08882300  0.23947100  0.12669367  1
  O  O2134  1  0.08882300  0.23947100  0.46002700  1
  O  O2135  1  0.08882300  0.23947100  0.79336033  1
  O  O2136  1  0.08882300  0.57280433  0.12669367  1
  O  O2137  1  0.08882300  0.57280433  0.46002700  1
  O  O2138  1  0.08882300  0.57280433  0.79336033  1
  O  O2139  1  0.08882300  0.90613767  0.12669367  1
  O  O2140  1  0.08882300  0.90613767  0.46002700  1
  O  O2141  1  0.08882300  0.90613767  0.79336033  1
  O  O2142  1  0.42215633  0.23947100  0.12669367  1
  O  O2143  1  0.42215633  0.23947100  0.46002700  1
  O  O2144  1  0.42215633  0.23947100  0.79336033  1
  O  O2145  1  0.42215633  0.57280433  0.12669367  1
  O  O2146  1  0.42215633  0.57280433  0.46002700  1
  O  O2147  1  0.42215633  0.57280433  0.79336033  1
  O  O2148  1  0.42215633  0.90613767  0.12669367  1
  O  O2149  1  0.42215633  0.90613767  0.46002700  1
  O  O2150  1  0.42215633  0.90613767  0.79336033  1
  O  O2151  1  0.75548967  0.23947100  0.12669367  1
  O  O2152  1  0.75548967  0.23947100  0.46002700  1
  O  O2153  1  0.75548967  0.23947100  0.79336033  1
  O  O2154  1  0.75548967  0.57280433  0.12669367  1
  O  O2155  1  0.75548967  0.57280433  0.46002700  1
  O  O2156  1  0.75548967  0.57280433  0.79336033  1
  O  O2157  1  0.75548967  0.90613767  0.12669367  1
  O  O2158  1  0.75548967  0.90613767  0.46002700  1
  O  O2159  1  0.75548967  0.90613767  0.79336033  1
  O  O2160  1  0.23727967  0.25904233  0.03320067  1
  O  O2161  1  0.23727967  0.25904233  0.36653400  1
  O  O2162  1  0.23727967  0.25904233  0.69986733  1
  O  O2163  1  0.23727967  0.59237567  0.03320067  1
  O  O2164  1  0.23727967  0.59237567  0.36653400  1
  O  O2165  1  0.23727967  0.59237567  0.69986733  1
  O  O2166  1  0.23727967  0.92570900  0.03320067  1
  O  O2167  1  0.23727967  0.92570900  0.36653400  1
  O  O2168  1  0.23727967  0.92570900  0.69986733  1
  O  O2169  1  0.57061300  0.25904233  0.03320067  1
  O  O2170  1  0.57061300  0.25904233  0.36653400  1
  O  O2171  1  0.57061300  0.25904233  0.69986733  1
  O  O2172  1  0.57061300  0.59237567  0.03320067  1
  O  O2173  1  0.57061300  0.59237567  0.36653400  1
  O  O2174  1  0.57061300  0.59237567  0.69986733  1
  O  O2175  1  0.57061300  0.92570900  0.03320067  1
  O  O2176  1  0.57061300  0.92570900  0.36653400  1
  O  O2177  1  0.57061300  0.92570900  0.69986733  1
  O  O2178  1  0.90394633  0.25904233  0.03320067  1
  O  O2179  1  0.90394633  0.25904233  0.36653400  1
  O  O2180  1  0.90394633  0.25904233  0.69986733  1
  O  O2181  1  0.90394633  0.59237567  0.03320067  1
  O  O2182  1  0.90394633  0.59237567  0.36653400  1
  O  O2183  1  0.90394633  0.59237567  0.69986733  1
  O  O2184  1  0.90394633  0.92570900  0.03320067  1
  O  O2185  1  0.90394633  0.92570900  0.36653400  1
  O  O2186  1  0.90394633  0.92570900  0.69986733  1
  O  O2187  1  0.09605367  0.07429100  0.30013267  1
  O  O2188  1  0.09605367  0.07429100  0.63346600  1
  O  O2189  1  0.09605367  0.07429100  0.96679933  1
  O  O2190  1  0.09605367  0.40762433  0.30013267  1
  O  O2191  1  0.09605367  0.40762433  0.63346600  1
  O  O2192  1  0.09605367  0.40762433  0.96679933  1
  O  O2193  1  0.09605367  0.74095767  0.30013267  1
  O  O2194  1  0.09605367  0.74095767  0.63346600  1
  O  O2195  1  0.09605367  0.74095767  0.96679933  1
  O  O2196  1  0.42938700  0.07429100  0.30013267  1
  O  O2197  1  0.42938700  0.07429100  0.63346600  1
  O  O2198  1  0.42938700  0.07429100  0.96679933  1
  O  O2199  1  0.42938700  0.40762433  0.30013267  1
  O  O2200  1  0.42938700  0.40762433  0.63346600  1
  O  O2201  1  0.42938700  0.40762433  0.96679933  1
  O  O2202  1  0.42938700  0.74095767  0.30013267  1
  O  O2203  1  0.42938700  0.74095767  0.63346600  1
  O  O2204  1  0.42938700  0.74095767  0.96679933  1
  O  O2205  1  0.76272033  0.07429100  0.30013267  1
  O  O2206  1  0.76272033  0.07429100  0.63346600  1
  O  O2207  1  0.76272033  0.07429100  0.96679933  1
  O  O2208  1  0.76272033  0.40762433  0.30013267  1
  O  O2209  1  0.76272033  0.40762433  0.63346600  1
  O  O2210  1  0.76272033  0.40762433  0.96679933  1
  O  O2211  1  0.76272033  0.74095767  0.30013267  1
  O  O2212  1  0.76272033  0.74095767  0.63346600  1
  O  O2213  1  0.76272033  0.74095767  0.96679933  1
  O  O2214  1  0.23699267  0.29813900  0.29507067  1
  O  O2215  1  0.23699267  0.29813900  0.62840400  1
  O  O2216  1  0.23699267  0.29813900  0.96173733  1
  O  O2217  1  0.23699267  0.63147233  0.29507067  1
  O  O2218  1  0.23699267  0.63147233  0.62840400  1
  O  O2219  1  0.23699267  0.63147233  0.96173733  1
  O  O2220  1  0.23699267  0.96480567  0.29507067  1
  O  O2221  1  0.23699267  0.96480567  0.62840400  1
  O  O2222  1  0.23699267  0.96480567  0.96173733  1
  O  O2223  1  0.57032600  0.29813900  0.29507067  1
  O  O2224  1  0.57032600  0.29813900  0.62840400  1
  O  O2225  1  0.57032600  0.29813900  0.96173733  1
  O  O2226  1  0.57032600  0.63147233  0.29507067  1
  O  O2227  1  0.57032600  0.63147233  0.62840400  1
  O  O2228  1  0.57032600  0.63147233  0.96173733  1
  O  O2229  1  0.57032600  0.96480567  0.29507067  1
  O  O2230  1  0.57032600  0.96480567  0.62840400  1
  O  O2231  1  0.57032600  0.96480567  0.96173733  1
  O  O2232  1  0.90365933  0.29813900  0.29507067  1
  O  O2233  1  0.90365933  0.29813900  0.62840400  1
  O  O2234  1  0.90365933  0.29813900  0.96173733  1
  O  O2235  1  0.90365933  0.63147233  0.29507067  1
  O  O2236  1  0.90365933  0.63147233  0.62840400  1
  O  O2237  1  0.90365933  0.63147233  0.96173733  1
  O  O2238  1  0.90365933  0.96480567  0.29507067  1
  O  O2239  1  0.90365933  0.96480567  0.62840400  1
  O  O2240  1  0.90365933  0.96480567  0.96173733  1
  O  O2241  1  0.09634067  0.03519433  0.03826267  1
  O  O2242  1  0.09634067  0.03519433  0.37159600  1
  O  O2243  1  0.09634067  0.03519433  0.70492933  1
  O  O2244  1  0.09634067  0.36852767  0.03826267  1
  O  O2245  1  0.09634067  0.36852767  0.37159600  1
  O  O2246  1  0.09634067  0.36852767  0.70492933  1
  O  O2247  1  0.09634067  0.70186100  0.03826267  1
  O  O2248  1  0.09634067  0.70186100  0.37159600  1
  O  O2249  1  0.09634067  0.70186100  0.70492933  1
  O  O2250  1  0.42967400  0.03519433  0.03826267  1
  O  O2251  1  0.42967400  0.03519433  0.37159600  1
  O  O2252  1  0.42967400  0.03519433  0.70492933  1
  O  O2253  1  0.42967400  0.36852767  0.03826267  1
  O  O2254  1  0.42967400  0.36852767  0.37159600  1
  O  O2255  1  0.42967400  0.36852767  0.70492933  1
  O  O2256  1  0.42967400  0.70186100  0.03826267  1
  O  O2257  1  0.42967400  0.70186100  0.37159600  1
  O  O2258  1  0.42967400  0.70186100  0.70492933  1
  O  O2259  1  0.76300733  0.03519433  0.03826267  1
  O  O2260  1  0.76300733  0.03519433  0.37159600  1
  O  O2261  1  0.76300733  0.03519433  0.70492933  1
  O  O2262  1  0.76300733  0.36852767  0.03826267  1
  O  O2263  1  0.76300733  0.36852767  0.37159600  1
  O  O2264  1  0.76300733  0.36852767  0.70492933  1
  O  O2265  1  0.76300733  0.70186100  0.03826267  1
  O  O2266  1  0.76300733  0.70186100  0.37159600  1
  O  O2267  1  0.76300733  0.70186100  0.70492933  1
  O  O2268  1  0.21866967  0.21738367  0.08407133  1
  O  O2269  1  0.21866967  0.21738367  0.41740467  1
  O  O2270  1  0.21866967  0.21738367  0.75073800  1
  O  O2271  1  0.21866967  0.55071700  0.08407133  1
  O  O2272  1  0.21866967  0.55071700  0.41740467  1
  O  O2273  1  0.21866967  0.55071700  0.75073800  1
  O  O2274  1  0.21866967  0.88405033  0.08407133  1
  O  O2275  1  0.21866967  0.88405033  0.41740467  1
  O  O2276  1  0.21866967  0.88405033  0.75073800  1
  O  O2277  1  0.55200300  0.21738367  0.08407133  1
  O  O2278  1  0.55200300  0.21738367  0.41740467  1
  O  O2279  1  0.55200300  0.21738367  0.75073800  1
  O  O2280  1  0.55200300  0.55071700  0.08407133  1
  O  O2281  1  0.55200300  0.55071700  0.41740467  1
  O  O2282  1  0.55200300  0.55071700  0.75073800  1
  O  O2283  1  0.55200300  0.88405033  0.08407133  1
  O  O2284  1  0.55200300  0.88405033  0.41740467  1
  O  O2285  1  0.55200300  0.88405033  0.75073800  1
  O  O2286  1  0.88533633  0.21738367  0.08407133  1
  O  O2287  1  0.88533633  0.21738367  0.41740467  1
  O  O2288  1  0.88533633  0.21738367  0.75073800  1
  O  O2289  1  0.88533633  0.55071700  0.08407133  1
  O  O2290  1  0.88533633  0.55071700  0.41740467  1
  O  O2291  1  0.88533633  0.55071700  0.75073800  1
  O  O2292  1  0.88533633  0.88405033  0.08407133  1
  O  O2293  1  0.88533633  0.88405033  0.41740467  1
  O  O2294  1  0.88533633  0.88405033  0.75073800  1
  O  O2295  1  0.11466367  0.11594967  0.24926200  1
  O  O2296  1  0.11466367  0.11594967  0.58259533  1
  O  O2297  1  0.11466367  0.11594967  0.91592867  1
  O  O2298  1  0.11466367  0.44928300  0.24926200  1
  O  O2299  1  0.11466367  0.44928300  0.58259533  1
  O  O2300  1  0.11466367  0.44928300  0.91592867  1
  O  O2301  1  0.11466367  0.78261633  0.24926200  1
  O  O2302  1  0.11466367  0.78261633  0.58259533  1
  O  O2303  1  0.11466367  0.78261633  0.91592867  1
  O  O2304  1  0.44799700  0.11594967  0.24926200  1
  O  O2305  1  0.44799700  0.11594967  0.58259533  1
  O  O2306  1  0.44799700  0.11594967  0.91592867  1
  O  O2307  1  0.44799700  0.44928300  0.24926200  1
  O  O2308  1  0.44799700  0.44928300  0.58259533  1
  O  O2309  1  0.44799700  0.44928300  0.91592867  1
  O  O2310  1  0.44799700  0.78261633  0.24926200  1
  O  O2311  1  0.44799700  0.78261633  0.58259533  1
  O  O2312  1  0.44799700  0.78261633  0.91592867  1
  O  O2313  1  0.78133033  0.11594967  0.24926200  1
  O  O2314  1  0.78133033  0.11594967  0.58259533  1
  O  O2315  1  0.78133033  0.11594967  0.91592867  1
  O  O2316  1  0.78133033  0.44928300  0.24926200  1
  O  O2317  1  0.78133033  0.44928300  0.58259533  1
  O  O2318  1  0.78133033  0.44928300  0.91592867  1
  O  O2319  1  0.78133033  0.78261633  0.24926200  1
  O  O2320  1  0.78133033  0.78261633  0.58259533  1
  O  O2321  1  0.78133033  0.78261633  0.91592867  1
  O  O2322  1  0.18759533  0.07923167  0.27832500  1
  O  O2323  1  0.18759533  0.07923167  0.61165833  1
  O  O2324  1  0.18759533  0.07923167  0.94499167  1
  O  O2325  1  0.18759533  0.41256500  0.27832500  1
  O  O2326  1  0.18759533  0.41256500  0.61165833  1
  O  O2327  1  0.18759533  0.41256500  0.94499167  1
  O  O2328  1  0.18759533  0.74589833  0.27832500  1
  O  O2329  1  0.18759533  0.74589833  0.61165833  1
  O  O2330  1  0.18759533  0.74589833  0.94499167  1
  O  O2331  1  0.52092867  0.07923167  0.27832500  1
  O  O2332  1  0.52092867  0.07923167  0.61165833  1
  O  O2333  1  0.52092867  0.07923167  0.94499167  1
  O  O2334  1  0.52092867  0.41256500  0.27832500  1
  O  O2335  1  0.52092867  0.41256500  0.61165833  1
  O  O2336  1  0.52092867  0.41256500  0.94499167  1
  O  O2337  1  0.52092867  0.74589833  0.27832500  1
  O  O2338  1  0.52092867  0.74589833  0.61165833  1
  O  O2339  1  0.52092867  0.74589833  0.94499167  1
  O  O2340  1  0.85426200  0.07923167  0.27832500  1
  O  O2341  1  0.85426200  0.07923167  0.61165833  1
  O  O2342  1  0.85426200  0.07923167  0.94499167  1
  O  O2343  1  0.85426200  0.41256500  0.27832500  1
  O  O2344  1  0.85426200  0.41256500  0.61165833  1
  O  O2345  1  0.85426200  0.41256500  0.94499167  1
  O  O2346  1  0.85426200  0.74589833  0.27832500  1
  O  O2347  1  0.85426200  0.74589833  0.61165833  1
  O  O2348  1  0.85426200  0.74589833  0.94499167  1
  O  O2349  1  0.14573800  0.25410167  0.05500833  1
  O  O2350  1  0.14573800  0.25410167  0.38834167  1
  O  O2351  1  0.14573800  0.25410167  0.72167500  1
  O  O2352  1  0.14573800  0.58743500  0.05500833  1
  O  O2353  1  0.14573800  0.58743500  0.38834167  1
  O  O2354  1  0.14573800  0.58743500  0.72167500  1
  O  O2355  1  0.14573800  0.92076833  0.05500833  1
  O  O2356  1  0.14573800  0.92076833  0.38834167  1
  O  O2357  1  0.14573800  0.92076833  0.72167500  1
  O  O2358  1  0.47907133  0.25410167  0.05500833  1
  O  O2359  1  0.47907133  0.25410167  0.38834167  1
  O  O2360  1  0.47907133  0.25410167  0.72167500  1
  O  O2361  1  0.47907133  0.58743500  0.05500833  1
  O  O2362  1  0.47907133  0.58743500  0.38834167  1
  O  O2363  1  0.47907133  0.58743500  0.72167500  1
  O  O2364  1  0.47907133  0.92076833  0.05500833  1
  O  O2365  1  0.47907133  0.92076833  0.38834167  1
  O  O2366  1  0.47907133  0.92076833  0.72167500  1
  O  O2367  1  0.81240467  0.25410167  0.05500833  1
  O  O2368  1  0.81240467  0.25410167  0.38834167  1
  O  O2369  1  0.81240467  0.25410167  0.72167500  1
  O  O2370  1  0.81240467  0.58743500  0.05500833  1
  O  O2371  1  0.81240467  0.58743500  0.38834167  1
  O  O2372  1  0.81240467  0.58743500  0.72167500  1
  O  O2373  1  0.81240467  0.92076833  0.05500833  1
  O  O2374  1  0.81240467  0.92076833  0.38834167  1
  O  O2375  1  0.81240467  0.92076833  0.72167500  1
  O  O2376  1  0.18360300  0.23912700  0.22551467  1
  O  O2377  1  0.18360300  0.23912700  0.55884800  1
  O  O2378  1  0.18360300  0.23912700  0.89218133  1
  O  O2379  1  0.18360300  0.57246033  0.22551467  1
  O  O2380  1  0.18360300  0.57246033  0.55884800  1
  O  O2381  1  0.18360300  0.57246033  0.89218133  1
  O  O2382  1  0.18360300  0.90579367  0.22551467  1
  O  O2383  1  0.18360300  0.90579367  0.55884800  1
  O  O2384  1  0.18360300  0.90579367  0.89218133  1
  O  O2385  1  0.51693633  0.23912700  0.22551467  1
  O  O2386  1  0.51693633  0.23912700  0.55884800  1
  O  O2387  1  0.51693633  0.23912700  0.89218133  1
  O  O2388  1  0.51693633  0.57246033  0.22551467  1
  O  O2389  1  0.51693633  0.57246033  0.55884800  1
  O  O2390  1  0.51693633  0.57246033  0.89218133  1
  O  O2391  1  0.51693633  0.90579367  0.22551467  1
  O  O2392  1  0.51693633  0.90579367  0.55884800  1
  O  O2393  1  0.51693633  0.90579367  0.89218133  1
  O  O2394  1  0.85026967  0.23912700  0.22551467  1
  O  O2395  1  0.85026967  0.23912700  0.55884800  1
  O  O2396  1  0.85026967  0.23912700  0.89218133  1
  O  O2397  1  0.85026967  0.57246033  0.22551467  1
  O  O2398  1  0.85026967  0.57246033  0.55884800  1
  O  O2399  1  0.85026967  0.57246033  0.89218133  1
  O  O2400  1  0.85026967  0.90579367  0.22551467  1
  O  O2401  1  0.85026967  0.90579367  0.55884800  1
  O  O2402  1  0.85026967  0.90579367  0.89218133  1
  O  O2403  1  0.14973033  0.09420633  0.10781867  1
  O  O2404  1  0.14973033  0.09420633  0.44115200  1
  O  O2405  1  0.14973033  0.09420633  0.77448533  1
  O  O2406  1  0.14973033  0.42753967  0.10781867  1
  O  O2407  1  0.14973033  0.42753967  0.44115200  1
  O  O2408  1  0.14973033  0.42753967  0.77448533  1
  O  O2409  1  0.14973033  0.76087300  0.10781867  1
  O  O2410  1  0.14973033  0.76087300  0.44115200  1
  O  O2411  1  0.14973033  0.76087300  0.77448533  1
  O  O2412  1  0.48306367  0.09420633  0.10781867  1
  O  O2413  1  0.48306367  0.09420633  0.44115200  1
  O  O2414  1  0.48306367  0.09420633  0.77448533  1
  O  O2415  1  0.48306367  0.42753967  0.10781867  1
  O  O2416  1  0.48306367  0.42753967  0.44115200  1
  O  O2417  1  0.48306367  0.42753967  0.77448533  1
  O  O2418  1  0.48306367  0.76087300  0.10781867  1
  O  O2419  1  0.48306367  0.76087300  0.44115200  1
  O  O2420  1  0.48306367  0.76087300  0.77448533  1
  O  O2421  1  0.81639700  0.09420633  0.10781867  1
  O  O2422  1  0.81639700  0.09420633  0.44115200  1
  O  O2423  1  0.81639700  0.09420633  0.77448533  1
  O  O2424  1  0.81639700  0.42753967  0.10781867  1
  O  O2425  1  0.81639700  0.42753967  0.44115200  1
  O  O2426  1  0.81639700  0.42753967  0.77448533  1
  O  O2427  1  0.81639700  0.76087300  0.10781867  1
  O  O2428  1  0.81639700  0.76087300  0.44115200  1
  O  O2429  1  0.81639700  0.76087300  0.77448533  1
  O  O2430  1  0.18252167  0.23402600  0.13988667  1
  O  O2431  1  0.18252167  0.23402600  0.47322000  1
  O  O2432  1  0.18252167  0.23402600  0.80655333  1
  O  O2433  1  0.18252167  0.56735933  0.13988667  1
  O  O2434  1  0.18252167  0.56735933  0.47322000  1
  O  O2435  1  0.18252167  0.56735933  0.80655333  1
  O  O2436  1  0.18252167  0.90069267  0.13988667  1
  O  O2437  1  0.18252167  0.90069267  0.47322000  1
  O  O2438  1  0.18252167  0.90069267  0.80655333  1
  O  O2439  1  0.51585500  0.23402600  0.13988667  1
  O  O2440  1  0.51585500  0.23402600  0.47322000  1
  O  O2441  1  0.51585500  0.23402600  0.80655333  1
  O  O2442  1  0.51585500  0.56735933  0.13988667  1
  O  O2443  1  0.51585500  0.56735933  0.47322000  1
  O  O2444  1  0.51585500  0.56735933  0.80655333  1
  O  O2445  1  0.51585500  0.90069267  0.13988667  1
  O  O2446  1  0.51585500  0.90069267  0.47322000  1
  O  O2447  1  0.51585500  0.90069267  0.80655333  1
  O  O2448  1  0.84918833  0.23402600  0.13988667  1
  O  O2449  1  0.84918833  0.23402600  0.47322000  1
  O  O2450  1  0.84918833  0.23402600  0.80655333  1
  O  O2451  1  0.84918833  0.56735933  0.13988667  1
  O  O2452  1  0.84918833  0.56735933  0.47322000  1
  O  O2453  1  0.84918833  0.56735933  0.80655333  1
  O  O2454  1  0.84918833  0.90069267  0.13988667  1
  O  O2455  1  0.84918833  0.90069267  0.47322000  1
  O  O2456  1  0.84918833  0.90069267  0.80655333  1
  O  O2457  1  0.15081167  0.09930733  0.19344667  1
  O  O2458  1  0.15081167  0.09930733  0.52678000  1
  O  O2459  1  0.15081167  0.09930733  0.86011333  1
  O  O2460  1  0.15081167  0.43264067  0.19344667  1
  O  O2461  1  0.15081167  0.43264067  0.52678000  1
  O  O2462  1  0.15081167  0.43264067  0.86011333  1
  O  O2463  1  0.15081167  0.76597400  0.19344667  1
  O  O2464  1  0.15081167  0.76597400  0.52678000  1
  O  O2465  1  0.15081167  0.76597400  0.86011333  1
  O  O2466  1  0.48414500  0.09930733  0.19344667  1
  O  O2467  1  0.48414500  0.09930733  0.52678000  1
  O  O2468  1  0.48414500  0.09930733  0.86011333  1
  O  O2469  1  0.48414500  0.43264067  0.19344667  1
  O  O2470  1  0.48414500  0.43264067  0.52678000  1
  O  O2471  1  0.48414500  0.43264067  0.86011333  1
  O  O2472  1  0.48414500  0.76597400  0.19344667  1
  O  O2473  1  0.48414500  0.76597400  0.52678000  1
  O  O2474  1  0.48414500  0.76597400  0.86011333  1
  O  O2475  1  0.81747833  0.09930733  0.19344667  1
  O  O2476  1  0.81747833  0.09930733  0.52678000  1
  O  O2477  1  0.81747833  0.09930733  0.86011333  1
  O  O2478  1  0.81747833  0.43264067  0.19344667  1
  O  O2479  1  0.81747833  0.43264067  0.52678000  1
  O  O2480  1  0.81747833  0.43264067  0.86011333  1
  O  O2481  1  0.81747833  0.76597400  0.19344667  1
  O  O2482  1  0.81747833  0.76597400  0.52678000  1
  O  O2483  1  0.81747833  0.76597400  0.86011333  1
  O  O2484  1  0.16834100  0.16624567  0.21984367  1
  O  O2485  1  0.16834100  0.16624567  0.55317700  1
  O  O2486  1  0.16834100  0.16624567  0.88651033  1
  O  O2487  1  0.16834100  0.49957900  0.21984367  1
  O  O2488  1  0.16834100  0.49957900  0.55317700  1
  O  O2489  1  0.16834100  0.49957900  0.88651033  1
  O  O2490  1  0.16834100  0.83291233  0.21984367  1
  O  O2491  1  0.16834100  0.83291233  0.55317700  1
  O  O2492  1  0.16834100  0.83291233  0.88651033  1
  O  O2493  1  0.50167433  0.16624567  0.21984367  1
  O  O2494  1  0.50167433  0.16624567  0.55317700  1
  O  O2495  1  0.50167433  0.16624567  0.88651033  1
  O  O2496  1  0.50167433  0.49957900  0.21984367  1
  O  O2497  1  0.50167433  0.49957900  0.55317700  1
  O  O2498  1  0.50167433  0.49957900  0.88651033  1
  O  O2499  1  0.50167433  0.83291233  0.21984367  1
  O  O2500  1  0.50167433  0.83291233  0.55317700  1
  O  O2501  1  0.50167433  0.83291233  0.88651033  1
  O  O2502  1  0.83500767  0.16624567  0.21984367  1
  O  O2503  1  0.83500767  0.16624567  0.55317700  1
  O  O2504  1  0.83500767  0.16624567  0.88651033  1
  O  O2505  1  0.83500767  0.49957900  0.21984367  1
  O  O2506  1  0.83500767  0.49957900  0.55317700  1
  O  O2507  1  0.83500767  0.49957900  0.88651033  1
  O  O2508  1  0.83500767  0.83291233  0.21984367  1
  O  O2509  1  0.83500767  0.83291233  0.55317700  1
  O  O2510  1  0.83500767  0.83291233  0.88651033  1
  O  O2511  1  0.16499233  0.16708767  0.11348967  1
  O  O2512  1  0.16499233  0.16708767  0.44682300  1
  O  O2513  1  0.16499233  0.16708767  0.78015633  1
  O  O2514  1  0.16499233  0.50042100  0.11348967  1
  O  O2515  1  0.16499233  0.50042100  0.44682300  1
  O  O2516  1  0.16499233  0.50042100  0.78015633  1
  O  O2517  1  0.16499233  0.83375433  0.11348967  1
  O  O2518  1  0.16499233  0.83375433  0.44682300  1
  O  O2519  1  0.16499233  0.83375433  0.78015633  1
  O  O2520  1  0.49832567  0.16708767  0.11348967  1
  O  O2521  1  0.49832567  0.16708767  0.44682300  1
  O  O2522  1  0.49832567  0.16708767  0.78015633  1
  O  O2523  1  0.49832567  0.50042100  0.11348967  1
  O  O2524  1  0.49832567  0.50042100  0.44682300  1
  O  O2525  1  0.49832567  0.50042100  0.78015633  1
  O  O2526  1  0.49832567  0.83375433  0.11348967  1
  O  O2527  1  0.49832567  0.83375433  0.44682300  1
  O  O2528  1  0.49832567  0.83375433  0.78015633  1
  O  O2529  1  0.83165900  0.16708767  0.11348967  1
  O  O2530  1  0.83165900  0.16708767  0.44682300  1
  O  O2531  1  0.83165900  0.16708767  0.78015633  1
  O  O2532  1  0.83165900  0.50042100  0.11348967  1
  O  O2533  1  0.83165900  0.50042100  0.44682300  1
  O  O2534  1  0.83165900  0.50042100  0.78015633  1
  O  O2535  1  0.83165900  0.83375433  0.11348967  1
  O  O2536  1  0.83165900  0.83375433  0.44682300  1
  O  O2537  1  0.83165900  0.83375433  0.78015633  1
  O  O2538  1  0.16832067  0.32704100  0.05384033  1
  O  O2539  1  0.16832067  0.32704100  0.38717367  1
  O  O2540  1  0.16832067  0.32704100  0.72050700  1
  O  O2541  1  0.16832067  0.66037433  0.05384033  1
  O  O2542  1  0.16832067  0.66037433  0.38717367  1
  O  O2543  1  0.16832067  0.66037433  0.72050700  1
  O  O2544  1  0.16832067  0.99370767  0.05384033  1
  O  O2545  1  0.16832067  0.99370767  0.38717367  1
  O  O2546  1  0.16832067  0.99370767  0.72050700  1
  O  O2547  1  0.50165400  0.32704100  0.05384033  1
  O  O2548  1  0.50165400  0.32704100  0.38717367  1
  O  O2549  1  0.50165400  0.32704100  0.72050700  1
  O  O2550  1  0.50165400  0.66037433  0.05384033  1
  O  O2551  1  0.50165400  0.66037433  0.38717367  1
  O  O2552  1  0.50165400  0.66037433  0.72050700  1
  O  O2553  1  0.50165400  0.99370767  0.05384033  1
  O  O2554  1  0.50165400  0.99370767  0.38717367  1
  O  O2555  1  0.50165400  0.99370767  0.72050700  1
  O  O2556  1  0.83498733  0.32704100  0.05384033  1
  O  O2557  1  0.83498733  0.32704100  0.38717367  1
  O  O2558  1  0.83498733  0.32704100  0.72050700  1
  O  O2559  1  0.83498733  0.66037433  0.05384033  1
  O  O2560  1  0.83498733  0.66037433  0.38717367  1
  O  O2561  1  0.83498733  0.66037433  0.72050700  1
  O  O2562  1  0.83498733  0.99370767  0.05384033  1
  O  O2563  1  0.83498733  0.99370767  0.38717367  1
  O  O2564  1  0.83498733  0.99370767  0.72050700  1
  O  O2565  1  0.16501267  0.00629233  0.27949300  1
  O  O2566  1  0.16501267  0.00629233  0.61282633  1
  O  O2567  1  0.16501267  0.00629233  0.94615967  1
  O  O2568  1  0.16501267  0.33962567  0.27949300  1
  O  O2569  1  0.16501267  0.33962567  0.61282633  1
  O  O2570  1  0.16501267  0.33962567  0.94615967  1
  O  O2571  1  0.16501267  0.67295900  0.27949300  1
  O  O2572  1  0.16501267  0.67295900  0.61282633  1
  O  O2573  1  0.16501267  0.67295900  0.94615967  1
  O  O2574  1  0.49834600  0.00629233  0.27949300  1
  O  O2575  1  0.49834600  0.00629233  0.61282633  1
  O  O2576  1  0.49834600  0.00629233  0.94615967  1
  O  O2577  1  0.49834600  0.33962567  0.27949300  1
  O  O2578  1  0.49834600  0.33962567  0.61282633  1
  O  O2579  1  0.49834600  0.33962567  0.94615967  1
  O  O2580  1  0.49834600  0.67295900  0.27949300  1
  O  O2581  1  0.49834600  0.67295900  0.61282633  1
  O  O2582  1  0.49834600  0.67295900  0.94615967  1
  O  O2583  1  0.83167933  0.00629233  0.27949300  1
  O  O2584  1  0.83167933  0.00629233  0.61282633  1
  O  O2585  1  0.83167933  0.00629233  0.94615967  1
  O  O2586  1  0.83167933  0.33962567  0.27949300  1
  O  O2587  1  0.83167933  0.33962567  0.61282633  1
  O  O2588  1  0.83167933  0.33962567  0.94615967  1
  O  O2589  1  0.83167933  0.67295900  0.27949300  1
  O  O2590  1  0.83167933  0.67295900  0.61282633  1
  O  O2591  1  0.83167933  0.67295900  0.94615967  1
  O  O2592  1  0.15489667  0.27348200  0.30517533  1
  O  O2593  1  0.15489667  0.27348200  0.63850867  1
  O  O2594  1  0.15489667  0.27348200  0.97184200  1
  O  O2595  1  0.15489667  0.60681533  0.30517533  1
  O  O2596  1  0.15489667  0.60681533  0.63850867  1
  O  O2597  1  0.15489667  0.60681533  0.97184200  1
  O  O2598  1  0.15489667  0.94014867  0.30517533  1
  O  O2599  1  0.15489667  0.94014867  0.63850867  1
  O  O2600  1  0.15489667  0.94014867  0.97184200  1
  O  O2601  1  0.48823000  0.27348200  0.30517533  1
  O  O2602  1  0.48823000  0.27348200  0.63850867  1
  O  O2603  1  0.48823000  0.27348200  0.97184200  1
  O  O2604  1  0.48823000  0.60681533  0.30517533  1
  O  O2605  1  0.48823000  0.60681533  0.63850867  1
  O  O2606  1  0.48823000  0.60681533  0.97184200  1
  O  O2607  1  0.48823000  0.94014867  0.30517533  1
  O  O2608  1  0.48823000  0.94014867  0.63850867  1
  O  O2609  1  0.48823000  0.94014867  0.97184200  1
  O  O2610  1  0.82156333  0.27348200  0.30517533  1
  O  O2611  1  0.82156333  0.27348200  0.63850867  1
  O  O2612  1  0.82156333  0.27348200  0.97184200  1
  O  O2613  1  0.82156333  0.60681533  0.30517533  1
  O  O2614  1  0.82156333  0.60681533  0.63850867  1
  O  O2615  1  0.82156333  0.60681533  0.97184200  1
  O  O2616  1  0.82156333  0.94014867  0.30517533  1
  O  O2617  1  0.82156333  0.94014867  0.63850867  1
  O  O2618  1  0.82156333  0.94014867  0.97184200  1
  O  O2619  1  0.17843667  0.05985133  0.02815800  1
  O  O2620  1  0.17843667  0.05985133  0.36149133  1
  O  O2621  1  0.17843667  0.05985133  0.69482467  1
  O  O2622  1  0.17843667  0.39318467  0.02815800  1
  O  O2623  1  0.17843667  0.39318467  0.36149133  1
  O  O2624  1  0.17843667  0.39318467  0.69482467  1
  O  O2625  1  0.17843667  0.72651800  0.02815800  1
  O  O2626  1  0.17843667  0.72651800  0.36149133  1
  O  O2627  1  0.17843667  0.72651800  0.69482467  1
  O  O2628  1  0.51177000  0.05985133  0.02815800  1
  O  O2629  1  0.51177000  0.05985133  0.36149133  1
  O  O2630  1  0.51177000  0.05985133  0.69482467  1
  O  O2631  1  0.51177000  0.39318467  0.02815800  1
  O  O2632  1  0.51177000  0.39318467  0.36149133  1
  O  O2633  1  0.51177000  0.39318467  0.69482467  1
  O  O2634  1  0.51177000  0.72651800  0.02815800  1
  O  O2635  1  0.51177000  0.72651800  0.36149133  1
  O  O2636  1  0.51177000  0.72651800  0.69482467  1
  O  O2637  1  0.84510333  0.05985133  0.02815800  1
  O  O2638  1  0.84510333  0.05985133  0.36149133  1
  O  O2639  1  0.84510333  0.05985133  0.69482467  1
  O  O2640  1  0.84510333  0.39318467  0.02815800  1
  O  O2641  1  0.84510333  0.39318467  0.36149133  1
  O  O2642  1  0.84510333  0.39318467  0.69482467  1
  O  O2643  1  0.84510333  0.72651800  0.02815800  1
  O  O2644  1  0.84510333  0.72651800  0.36149133  1
  O  O2645  1  0.84510333  0.72651800  0.69482467  1
  O  O2646  1  0.14865467  0.29658967  0.10664433  1
  O  O2647  1  0.14865467  0.29658967  0.43997767  1
  O  O2648  1  0.14865467  0.29658967  0.77331100  1
  O  O2649  1  0.14865467  0.62992300  0.10664433  1
  O  O2650  1  0.14865467  0.62992300  0.43997767  1
  O  O2651  1  0.14865467  0.62992300  0.77331100  1
  O  O2652  1  0.14865467  0.96325633  0.10664433  1
  O  O2653  1  0.14865467  0.96325633  0.43997767  1
  O  O2654  1  0.14865467  0.96325633  0.77331100  1
  O  O2655  1  0.48198800  0.29658967  0.10664433  1
  O  O2656  1  0.48198800  0.29658967  0.43997767  1
  O  O2657  1  0.48198800  0.29658967  0.77331100  1
  O  O2658  1  0.48198800  0.62992300  0.10664433  1
  O  O2659  1  0.48198800  0.62992300  0.43997767  1
  O  O2660  1  0.48198800  0.62992300  0.77331100  1
  O  O2661  1  0.48198800  0.96325633  0.10664433  1
  O  O2662  1  0.48198800  0.96325633  0.43997767  1
  O  O2663  1  0.48198800  0.96325633  0.77331100  1
  O  O2664  1  0.81532133  0.29658967  0.10664433  1
  O  O2665  1  0.81532133  0.29658967  0.43997767  1
  O  O2666  1  0.81532133  0.29658967  0.77331100  1
  O  O2667  1  0.81532133  0.62992300  0.10664433  1
  O  O2668  1  0.81532133  0.62992300  0.43997767  1
  O  O2669  1  0.81532133  0.62992300  0.77331100  1
  O  O2670  1  0.81532133  0.96325633  0.10664433  1
  O  O2671  1  0.81532133  0.96325633  0.43997767  1
  O  O2672  1  0.81532133  0.96325633  0.77331100  1
  O  O2673  1  0.18467867  0.03674367  0.22668900  1
  O  O2674  1  0.18467867  0.03674367  0.56002233  1
  O  O2675  1  0.18467867  0.03674367  0.89335567  1
  O  O2676  1  0.18467867  0.37007700  0.22668900  1
  O  O2677  1  0.18467867  0.37007700  0.56002233  1
  O  O2678  1  0.18467867  0.37007700  0.89335567  1
  O  O2679  1  0.18467867  0.70341033  0.22668900  1
  O  O2680  1  0.18467867  0.70341033  0.56002233  1
  O  O2681  1  0.18467867  0.70341033  0.89335567  1
  O  O2682  1  0.51801200  0.03674367  0.22668900  1
  O  O2683  1  0.51801200  0.03674367  0.56002233  1
  O  O2684  1  0.51801200  0.03674367  0.89335567  1
  O  O2685  1  0.51801200  0.37007700  0.22668900  1
  O  O2686  1  0.51801200  0.37007700  0.56002233  1
  O  O2687  1  0.51801200  0.37007700  0.89335567  1
  O  O2688  1  0.51801200  0.70341033  0.22668900  1
  O  O2689  1  0.51801200  0.70341033  0.56002233  1
  O  O2690  1  0.51801200  0.70341033  0.89335567  1
  O  O2691  1  0.85134533  0.03674367  0.22668900  1
  O  O2692  1  0.85134533  0.03674367  0.56002233  1
  O  O2693  1  0.85134533  0.03674367  0.89335567  1
  O  O2694  1  0.85134533  0.37007700  0.22668900  1
  O  O2695  1  0.85134533  0.37007700  0.56002233  1
  O  O2696  1  0.85134533  0.37007700  0.89335567  1
  O  O2697  1  0.85134533  0.70341033  0.22668900  1
  O  O2698  1  0.85134533  0.70341033  0.56002233  1
  O  O2699  1  0.85134533  0.70341033  0.89335567  1
  O  O2700  1  0.14934933  0.13988800  0.30702533  1
  O  O2701  1  0.14934933  0.13988800  0.64035867  1
  O  O2702  1  0.14934933  0.13988800  0.97369200  1
  O  O2703  1  0.14934933  0.47322133  0.30702533  1
  O  O2704  1  0.14934933  0.47322133  0.64035867  1
  O  O2705  1  0.14934933  0.47322133  0.97369200  1
  O  O2706  1  0.14934933  0.80655467  0.30702533  1
  O  O2707  1  0.14934933  0.80655467  0.64035867  1
  O  O2708  1  0.14934933  0.80655467  0.97369200  1
  O  O2709  1  0.48268267  0.13988800  0.30702533  1
  O  O2710  1  0.48268267  0.13988800  0.64035867  1
  O  O2711  1  0.48268267  0.13988800  0.97369200  1
  O  O2712  1  0.48268267  0.47322133  0.30702533  1
  O  O2713  1  0.48268267  0.47322133  0.64035867  1
  O  O2714  1  0.48268267  0.47322133  0.97369200  1
  O  O2715  1  0.48268267  0.80655467  0.30702533  1
  O  O2716  1  0.48268267  0.80655467  0.64035867  1
  O  O2717  1  0.48268267  0.80655467  0.97369200  1
  O  O2718  1  0.81601600  0.13988800  0.30702533  1
  O  O2719  1  0.81601600  0.13988800  0.64035867  1
  O  O2720  1  0.81601600  0.13988800  0.97369200  1
  O  O2721  1  0.81601600  0.47322133  0.30702533  1
  O  O2722  1  0.81601600  0.47322133  0.64035867  1
  O  O2723  1  0.81601600  0.47322133  0.97369200  1
  O  O2724  1  0.81601600  0.80655467  0.30702533  1
  O  O2725  1  0.81601600  0.80655467  0.64035867  1
  O  O2726  1  0.81601600  0.80655467  0.97369200  1
  O  O2727  1  0.18398400  0.19344567  0.02630800  1
  O  O2728  1  0.18398400  0.19344567  0.35964133  1
  O  O2729  1  0.18398400  0.19344567  0.69297467  1
  O  O2730  1  0.18398400  0.52677900  0.02630800  1
  O  O2731  1  0.18398400  0.52677900  0.35964133  1
  O  O2732  1  0.18398400  0.52677900  0.69297467  1
  O  O2733  1  0.18398400  0.86011233  0.02630800  1
  O  O2734  1  0.18398400  0.86011233  0.35964133  1
  O  O2735  1  0.18398400  0.86011233  0.69297467  1
  O  O2736  1  0.51731733  0.19344567  0.02630800  1
  O  O2737  1  0.51731733  0.19344567  0.35964133  1
  O  O2738  1  0.51731733  0.19344567  0.69297467  1
  O  O2739  1  0.51731733  0.52677900  0.02630800  1
  O  O2740  1  0.51731733  0.52677900  0.35964133  1
  O  O2741  1  0.51731733  0.52677900  0.69297467  1
  O  O2742  1  0.51731733  0.86011233  0.02630800  1
  O  O2743  1  0.51731733  0.86011233  0.35964133  1
  O  O2744  1  0.51731733  0.86011233  0.69297467  1
  O  O2745  1  0.85065067  0.19344567  0.02630800  1
  O  O2746  1  0.85065067  0.19344567  0.35964133  1
  O  O2747  1  0.85065067  0.19344567  0.69297467  1
  O  O2748  1  0.85065067  0.52677900  0.02630800  1
  O  O2749  1  0.85065067  0.52677900  0.35964133  1
  O  O2750  1  0.85065067  0.52677900  0.69297467  1
  O  O2751  1  0.85065067  0.86011233  0.02630800  1
  O  O2752  1  0.85065067  0.86011233  0.35964133  1
  O  O2753  1  0.85065067  0.86011233  0.69297467  1
  O  O2754  1  0.13418600  0.29123667  0.16778333  1
  O  O2755  1  0.13418600  0.29123667  0.50111667  1
  O  O2756  1  0.13418600  0.29123667  0.83445000  1
  O  O2757  1  0.13418600  0.62457000  0.16778333  1
  O  O2758  1  0.13418600  0.62457000  0.50111667  1
  O  O2759  1  0.13418600  0.62457000  0.83445000  1
  O  O2760  1  0.13418600  0.95790333  0.16778333  1
  O  O2761  1  0.13418600  0.95790333  0.50111667  1
  O  O2762  1  0.13418600  0.95790333  0.83445000  1
  O  O2763  1  0.46751933  0.29123667  0.16778333  1
  O  O2764  1  0.46751933  0.29123667  0.50111667  1
  O  O2765  1  0.46751933  0.29123667  0.83445000  1
  O  O2766  1  0.46751933  0.62457000  0.16778333  1
  O  O2767  1  0.46751933  0.62457000  0.50111667  1
  O  O2768  1  0.46751933  0.62457000  0.83445000  1
  O  O2769  1  0.46751933  0.95790333  0.16778333  1
  O  O2770  1  0.46751933  0.95790333  0.50111667  1
  O  O2771  1  0.46751933  0.95790333  0.83445000  1
  O  O2772  1  0.80085267  0.29123667  0.16778333  1
  O  O2773  1  0.80085267  0.29123667  0.50111667  1
  O  O2774  1  0.80085267  0.29123667  0.83445000  1
  O  O2775  1  0.80085267  0.62457000  0.16778333  1
  O  O2776  1  0.80085267  0.62457000  0.50111667  1
  O  O2777  1  0.80085267  0.62457000  0.83445000  1
  O  O2778  1  0.80085267  0.95790333  0.16778333  1
  O  O2779  1  0.80085267  0.95790333  0.50111667  1
  O  O2780  1  0.80085267  0.95790333  0.83445000  1
  O  O2781  1  0.19914733  0.04209667  0.16555000  1
  O  O2782  1  0.19914733  0.04209667  0.49888333  1
  O  O2783  1  0.19914733  0.04209667  0.83221667  1
  O  O2784  1  0.19914733  0.37543000  0.16555000  1
  O  O2785  1  0.19914733  0.37543000  0.49888333  1
  O  O2786  1  0.19914733  0.37543000  0.83221667  1
  O  O2787  1  0.19914733  0.70876333  0.16555000  1
  O  O2788  1  0.19914733  0.70876333  0.49888333  1
  O  O2789  1  0.19914733  0.70876333  0.83221667  1
  O  O2790  1  0.53248067  0.04209667  0.16555000  1
  O  O2791  1  0.53248067  0.04209667  0.49888333  1
  O  O2792  1  0.53248067  0.04209667  0.83221667  1
  O  O2793  1  0.53248067  0.37543000  0.16555000  1
  O  O2794  1  0.53248067  0.37543000  0.49888333  1
  O  O2795  1  0.53248067  0.37543000  0.83221667  1
  O  O2796  1  0.53248067  0.70876333  0.16555000  1
  O  O2797  1  0.53248067  0.70876333  0.49888333  1
  O  O2798  1  0.53248067  0.70876333  0.83221667  1
  O  O2799  1  0.86581400  0.04209667  0.16555000  1
  O  O2800  1  0.86581400  0.04209667  0.49888333  1
  O  O2801  1  0.86581400  0.04209667  0.83221667  1
  O  O2802  1  0.86581400  0.37543000  0.16555000  1
  O  O2803  1  0.86581400  0.37543000  0.49888333  1
  O  O2804  1  0.86581400  0.37543000  0.83221667  1
  O  O2805  1  0.86581400  0.70876333  0.16555000  1
  O  O2806  1  0.86581400  0.70876333  0.49888333  1
  O  O2807  1  0.86581400  0.70876333  0.83221667  1
  O  O2808  1  0.10071700  0.21633300  0.21413433  1
  O  O2809  1  0.10071700  0.21633300  0.54746767  1
  O  O2810  1  0.10071700  0.21633300  0.88080100  1
  O  O2811  1  0.10071700  0.54966633  0.21413433  1
  O  O2812  1  0.10071700  0.54966633  0.54746767  1
  O  O2813  1  0.10071700  0.54966633  0.88080100  1
  O  O2814  1  0.10071700  0.88299967  0.21413433  1
  O  O2815  1  0.10071700  0.88299967  0.54746767  1
  O  O2816  1  0.10071700  0.88299967  0.88080100  1
  O  O2817  1  0.43405033  0.21633300  0.21413433  1
  O  O2818  1  0.43405033  0.21633300  0.54746767  1
  O  O2819  1  0.43405033  0.21633300  0.88080100  1
  O  O2820  1  0.43405033  0.54966633  0.21413433  1
  O  O2821  1  0.43405033  0.54966633  0.54746767  1
  O  O2822  1  0.43405033  0.54966633  0.88080100  1
  O  O2823  1  0.43405033  0.88299967  0.21413433  1
  O  O2824  1  0.43405033  0.88299967  0.54746767  1
  O  O2825  1  0.43405033  0.88299967  0.88080100  1
  O  O2826  1  0.76738367  0.21633300  0.21413433  1
  O  O2827  1  0.76738367  0.21633300  0.54746767  1
  O  O2828  1  0.76738367  0.21633300  0.88080100  1
  O  O2829  1  0.76738367  0.54966633  0.21413433  1
  O  O2830  1  0.76738367  0.54966633  0.54746767  1
  O  O2831  1  0.76738367  0.54966633  0.88080100  1
  O  O2832  1  0.76738367  0.88299967  0.21413433  1
  O  O2833  1  0.76738367  0.88299967  0.54746767  1
  O  O2834  1  0.76738367  0.88299967  0.88080100  1
  O  O2835  1  0.23261633  0.11700033  0.11919900  1
  O  O2836  1  0.23261633  0.11700033  0.45253233  1
  O  O2837  1  0.23261633  0.11700033  0.78586567  1
  O  O2838  1  0.23261633  0.45033367  0.11919900  1
  O  O2839  1  0.23261633  0.45033367  0.45253233  1
  O  O2840  1  0.23261633  0.45033367  0.78586567  1
  O  O2841  1  0.23261633  0.78366700  0.11919900  1
  O  O2842  1  0.23261633  0.78366700  0.45253233  1
  O  O2843  1  0.23261633  0.78366700  0.78586567  1
  O  O2844  1  0.56594967  0.11700033  0.11919900  1
  O  O2845  1  0.56594967  0.11700033  0.45253233  1
  O  O2846  1  0.56594967  0.11700033  0.78586567  1
  O  O2847  1  0.56594967  0.45033367  0.11919900  1
  O  O2848  1  0.56594967  0.45033367  0.45253233  1
  O  O2849  1  0.56594967  0.45033367  0.78586567  1
  O  O2850  1  0.56594967  0.78366700  0.11919900  1
  O  O2851  1  0.56594967  0.78366700  0.45253233  1
  O  O2852  1  0.56594967  0.78366700  0.78586567  1
  O  O2853  1  0.89928300  0.11700033  0.11919900  1
  O  O2854  1  0.89928300  0.11700033  0.45253233  1
  O  O2855  1  0.89928300  0.11700033  0.78586567  1
  O  O2856  1  0.89928300  0.45033367  0.11919900  1
  O  O2857  1  0.89928300  0.45033367  0.45253233  1
  O  O2858  1  0.89928300  0.45033367  0.78586567  1
  O  O2859  1  0.89928300  0.78366700  0.11919900  1
  O  O2860  1  0.89928300  0.78366700  0.45253233  1
  O  O2861  1  0.89928300  0.78366700  0.78586567  1
  O  O2862  1  0.08550533  0.22961500  0.31392200  1
  O  O2863  1  0.08550533  0.22961500  0.64725533  1
  O  O2864  1  0.08550533  0.22961500  0.98058867  1
  O  O2865  1  0.08550533  0.56294833  0.31392200  1
  O  O2866  1  0.08550533  0.56294833  0.64725533  1
  O  O2867  1  0.08550533  0.56294833  0.98058867  1
  O  O2868  1  0.08550533  0.89628167  0.31392200  1
  O  O2869  1  0.08550533  0.89628167  0.64725533  1
  O  O2870  1  0.08550533  0.89628167  0.98058867  1
  O  O2871  1  0.41883867  0.22961500  0.31392200  1
  O  O2872  1  0.41883867  0.22961500  0.64725533  1
  O  O2873  1  0.41883867  0.22961500  0.98058867  1
  O  O2874  1  0.41883867  0.56294833  0.31392200  1
  O  O2875  1  0.41883867  0.56294833  0.64725533  1
  O  O2876  1  0.41883867  0.56294833  0.98058867  1
  O  O2877  1  0.41883867  0.89628167  0.31392200  1
  O  O2878  1  0.41883867  0.89628167  0.64725533  1
  O  O2879  1  0.41883867  0.89628167  0.98058867  1
  O  O2880  1  0.75217200  0.22961500  0.31392200  1
  O  O2881  1  0.75217200  0.22961500  0.64725533  1
  O  O2882  1  0.75217200  0.22961500  0.98058867  1
  O  O2883  1  0.75217200  0.56294833  0.31392200  1
  O  O2884  1  0.75217200  0.56294833  0.64725533  1
  O  O2885  1  0.75217200  0.56294833  0.98058867  1
  O  O2886  1  0.75217200  0.89628167  0.31392200  1
  O  O2887  1  0.75217200  0.89628167  0.64725533  1
  O  O2888  1  0.75217200  0.89628167  0.98058867  1
  O  O2889  1  0.24782800  0.10371833  0.01941133  1
  O  O2890  1  0.24782800  0.10371833  0.35274467  1
  O  O2891  1  0.24782800  0.10371833  0.68607800  1
  O  O2892  1  0.24782800  0.43705167  0.01941133  1
  O  O2893  1  0.24782800  0.43705167  0.35274467  1
  O  O2894  1  0.24782800  0.43705167  0.68607800  1
  O  O2895  1  0.24782800  0.77038500  0.01941133  1
  O  O2896  1  0.24782800  0.77038500  0.35274467  1
  O  O2897  1  0.24782800  0.77038500  0.68607800  1
  O  O2898  1  0.58116133  0.10371833  0.01941133  1
  O  O2899  1  0.58116133  0.10371833  0.35274467  1
  O  O2900  1  0.58116133  0.10371833  0.68607800  1
  O  O2901  1  0.58116133  0.43705167  0.01941133  1
  O  O2902  1  0.58116133  0.43705167  0.35274467  1
  O  O2903  1  0.58116133  0.43705167  0.68607800  1
  O  O2904  1  0.58116133  0.77038500  0.01941133  1
  O  O2905  1  0.58116133  0.77038500  0.35274467  1
  O  O2906  1  0.58116133  0.77038500  0.68607800  1
  O  O2907  1  0.91449467  0.10371833  0.01941133  1
  O  O2908  1  0.91449467  0.10371833  0.35274467  1
  O  O2909  1  0.91449467  0.10371833  0.68607800  1
  O  O2910  1  0.91449467  0.43705167  0.01941133  1
  O  O2911  1  0.91449467  0.43705167  0.35274467  1
  O  O2912  1  0.91449467  0.43705167  0.68607800  1
  O  O2913  1  0.91449467  0.77038500  0.01941133  1
  O  O2914  1  0.91449467  0.77038500  0.35274467  1
  O  O2915  1  0.91449467  0.77038500  0.68607800  1
  O  O2916  1  0.06991067  0.30111567  0.30338267  1
  O  O2917  1  0.06991067  0.30111567  0.63671600  1
  O  O2918  1  0.06991067  0.30111567  0.97004933  1
  O  O2919  1  0.06991067  0.63444900  0.30338267  1
  O  O2920  1  0.06991067  0.63444900  0.63671600  1
  O  O2921  1  0.06991067  0.63444900  0.97004933  1
  O  O2922  1  0.06991067  0.96778233  0.30338267  1
  O  O2923  1  0.06991067  0.96778233  0.63671600  1
  O  O2924  1  0.06991067  0.96778233  0.97004933  1
  O  O2925  1  0.40324400  0.30111567  0.30338267  1
  O  O2926  1  0.40324400  0.30111567  0.63671600  1
  O  O2927  1  0.40324400  0.30111567  0.97004933  1
  O  O2928  1  0.40324400  0.63444900  0.30338267  1
  O  O2929  1  0.40324400  0.63444900  0.63671600  1
  O  O2930  1  0.40324400  0.63444900  0.97004933  1
  O  O2931  1  0.40324400  0.96778233  0.30338267  1
  O  O2932  1  0.40324400  0.96778233  0.63671600  1
  O  O2933  1  0.40324400  0.96778233  0.97004933  1
  O  O2934  1  0.73657733  0.30111567  0.30338267  1
  O  O2935  1  0.73657733  0.30111567  0.63671600  1
  O  O2936  1  0.73657733  0.30111567  0.97004933  1
  O  O2937  1  0.73657733  0.63444900  0.30338267  1
  O  O2938  1  0.73657733  0.63444900  0.63671600  1
  O  O2939  1  0.73657733  0.63444900  0.97004933  1
  O  O2940  1  0.73657733  0.96778233  0.30338267  1
  O  O2941  1  0.73657733  0.96778233  0.63671600  1
  O  O2942  1  0.73657733  0.96778233  0.97004933  1
  O  O2943  1  0.26342267  0.03221767  0.02995067  1
  O  O2944  1  0.26342267  0.03221767  0.36328400  1
  O  O2945  1  0.26342267  0.03221767  0.69661733  1
  O  O2946  1  0.26342267  0.36555100  0.02995067  1
  O  O2947  1  0.26342267  0.36555100  0.36328400  1
  O  O2948  1  0.26342267  0.36555100  0.69661733  1
  O  O2949  1  0.26342267  0.69888433  0.02995067  1
  O  O2950  1  0.26342267  0.69888433  0.36328400  1
  O  O2951  1  0.26342267  0.69888433  0.69661733  1
  O  O2952  1  0.59675600  0.03221767  0.02995067  1
  O  O2953  1  0.59675600  0.03221767  0.36328400  1
  O  O2954  1  0.59675600  0.03221767  0.69661733  1
  O  O2955  1  0.59675600  0.36555100  0.02995067  1
  O  O2956  1  0.59675600  0.36555100  0.36328400  1
  O  O2957  1  0.59675600  0.36555100  0.69661733  1
  O  O2958  1  0.59675600  0.69888433  0.02995067  1
  O  O2959  1  0.59675600  0.69888433  0.36328400  1
  O  O2960  1  0.59675600  0.69888433  0.69661733  1
  O  O2961  1  0.93008933  0.03221767  0.02995067  1
  O  O2962  1  0.93008933  0.03221767  0.36328400  1
  O  O2963  1  0.93008933  0.03221767  0.69661733  1
  O  O2964  1  0.93008933  0.36555100  0.02995067  1
  O  O2965  1  0.93008933  0.36555100  0.36328400  1
  O  O2966  1  0.93008933  0.36555100  0.69661733  1
  O  O2967  1  0.93008933  0.69888433  0.02995067  1
  O  O2968  1  0.93008933  0.69888433  0.36328400  1
  O  O2969  1  0.93008933  0.69888433  0.69661733  1
  O  O2970  1  0.06815567  0.32501567  0.22999000  1
  O  O2971  1  0.06815567  0.32501567  0.56332333  1
  O  O2972  1  0.06815567  0.32501567  0.89665667  1
  O  O2973  1  0.06815567  0.65834900  0.22999000  1
  O  O2974  1  0.06815567  0.65834900  0.56332333  1
  O  O2975  1  0.06815567  0.65834900  0.89665667  1
  O  O2976  1  0.06815567  0.99168233  0.22999000  1
  O  O2977  1  0.06815567  0.99168233  0.56332333  1
  O  O2978  1  0.06815567  0.99168233  0.89665667  1
  O  O2979  1  0.40148900  0.32501567  0.22999000  1
  O  O2980  1  0.40148900  0.32501567  0.56332333  1
  O  O2981  1  0.40148900  0.32501567  0.89665667  1
  O  O2982  1  0.40148900  0.65834900  0.22999000  1
  O  O2983  1  0.40148900  0.65834900  0.56332333  1
  O  O2984  1  0.40148900  0.65834900  0.89665667  1
  O  O2985  1  0.40148900  0.99168233  0.22999000  1
  O  O2986  1  0.40148900  0.99168233  0.56332333  1
  O  O2987  1  0.40148900  0.99168233  0.89665667  1
  O  O2988  1  0.73482233  0.32501567  0.22999000  1
  O  O2989  1  0.73482233  0.32501567  0.56332333  1
  O  O2990  1  0.73482233  0.32501567  0.89665667  1
  O  O2991  1  0.73482233  0.65834900  0.22999000  1
  O  O2992  1  0.73482233  0.65834900  0.56332333  1
  O  O2993  1  0.73482233  0.65834900  0.89665667  1
  O  O2994  1  0.73482233  0.99168233  0.22999000  1
  O  O2995  1  0.73482233  0.99168233  0.56332333  1
  O  O2996  1  0.73482233  0.99168233  0.89665667  1
  O  O2997  1  0.26517767  0.00831767  0.10334333  1
  O  O2998  1  0.26517767  0.00831767  0.43667667  1
  O  O2999  1  0.26517767  0.00831767  0.77001000  1
  O  O3000  1  0.26517767  0.34165100  0.10334333  1
  O  O3001  1  0.26517767  0.34165100  0.43667667  1
  O  O3002  1  0.26517767  0.34165100  0.77001000  1
  O  O3003  1  0.26517767  0.67498433  0.10334333  1
  O  O3004  1  0.26517767  0.67498433  0.43667667  1
  O  O3005  1  0.26517767  0.67498433  0.77001000  1
  O  O3006  1  0.59851100  0.00831767  0.10334333  1
  O  O3007  1  0.59851100  0.00831767  0.43667667  1
  O  O3008  1  0.59851100  0.00831767  0.77001000  1
  O  O3009  1  0.59851100  0.34165100  0.10334333  1
  O  O3010  1  0.59851100  0.34165100  0.43667667  1
  O  O3011  1  0.59851100  0.34165100  0.77001000  1
  O  O3012  1  0.59851100  0.67498433  0.10334333  1
  O  O3013  1  0.59851100  0.67498433  0.43667667  1
  O  O3014  1  0.59851100  0.67498433  0.77001000  1
  O  O3015  1  0.93184433  0.00831767  0.10334333  1
  O  O3016  1  0.93184433  0.00831767  0.43667667  1
  O  O3017  1  0.93184433  0.00831767  0.77001000  1
  O  O3018  1  0.93184433  0.34165100  0.10334333  1
  O  O3019  1  0.93184433  0.34165100  0.43667667  1
  O  O3020  1  0.93184433  0.34165100  0.77001000  1
  O  O3021  1  0.93184433  0.67498433  0.10334333  1
  O  O3022  1  0.93184433  0.67498433  0.43667667  1
  O  O3023  1  0.93184433  0.67498433  0.77001000  1
