# generated using pymatgen
data_Li2U3(PO5)4
_symmetry_space_group_name_H-M   'P 1'
_cell_length_a   27.04603000
_cell_length_b   33.89120029
_cell_length_c   63.39652971
_cell_angle_alpha   94.82509625
_cell_angle_beta   99.13944414
_cell_angle_gamma   110.45147719
_symmetry_Int_Tables_number   1
_chemical_formula_structural   Li2U3(PO5)4
_chemical_formula_sum   'Li250 U375 P500 O2500'
_cell_volume   53140.89008684
_cell_formula_units_Z   125
loop_
 _symmetry_equiv_pos_site_id
 _symmetry_equiv_pos_as_xyz
  1  'x, y, z'
loop_
 _atom_site_type_symbol
 _atom_site_label
 _atom_site_symmetry_multiplicity
 _atom_site_fract_x
 _atom_site_fract_y
 _atom_site_fract_z
 _atom_site_occupancy
  Li  Li0  1  0.07842500  0.18520520  0.03779640  1
  Li  Li1  1  0.07842500  0.18520520  0.23779640  1
  Li  Li2  1  0.07842500  0.18520520  0.43779640  1
  Li  Li3  1  0.07842500  0.18520520  0.63779640  1
  Li  Li4  1  0.07842500  0.18520520  0.83779640  1
  Li  Li5  1  0.07842500  0.38520520  0.03779640  1
  Li  Li6  1  0.07842500  0.38520520  0.23779640  1
  Li  Li7  1  0.07842500  0.38520520  0.43779640  1
  Li  Li8  1  0.07842500  0.38520520  0.63779640  1
  Li  Li9  1  0.07842500  0.38520520  0.83779640  1
  Li  Li10  1  0.07842500  0.58520520  0.03779640  1
  Li  Li11  1  0.07842500  0.58520520  0.23779640  1
  Li  Li12  1  0.07842500  0.58520520  0.43779640  1
  Li  Li13  1  0.07842500  0.58520520  0.63779640  1
  Li  Li14  1  0.07842500  0.58520520  0.83779640  1
  Li  Li15  1  0.07842500  0.78520520  0.03779640  1
  Li  Li16  1  0.07842500  0.78520520  0.23779640  1
  Li  Li17  1  0.07842500  0.78520520  0.43779640  1
  Li  Li18  1  0.07842500  0.78520520  0.63779640  1
  Li  Li19  1  0.07842500  0.78520520  0.83779640  1
  Li  Li20  1  0.07842500  0.98520520  0.03779640  1
  Li  Li21  1  0.07842500  0.98520520  0.23779640  1
  Li  Li22  1  0.07842500  0.98520520  0.43779640  1
  Li  Li23  1  0.07842500  0.98520520  0.63779640  1
  Li  Li24  1  0.07842500  0.98520520  0.83779640  1
  Li  Li25  1  0.27842500  0.18520520  0.03779640  1
  Li  Li26  1  0.27842500  0.18520520  0.23779640  1
  Li  Li27  1  0.27842500  0.18520520  0.43779640  1
  Li  Li28  1  0.27842500  0.18520520  0.63779640  1
  Li  Li29  1  0.27842500  0.18520520  0.83779640  1
  Li  Li30  1  0.27842500  0.38520520  0.03779640  1
  Li  Li31  1  0.27842500  0.38520520  0.23779640  1
  Li  Li32  1  0.27842500  0.38520520  0.43779640  1
  Li  Li33  1  0.27842500  0.38520520  0.63779640  1
  Li  Li34  1  0.27842500  0.38520520  0.83779640  1
  Li  Li35  1  0.27842500  0.58520520  0.03779640  1
  Li  Li36  1  0.27842500  0.58520520  0.23779640  1
  Li  Li37  1  0.27842500  0.58520520  0.43779640  1
  Li  Li38  1  0.27842500  0.58520520  0.63779640  1
  Li  Li39  1  0.27842500  0.58520520  0.83779640  1
  Li  Li40  1  0.27842500  0.78520520  0.03779640  1
  Li  Li41  1  0.27842500  0.78520520  0.23779640  1
  Li  Li42  1  0.27842500  0.78520520  0.43779640  1
  Li  Li43  1  0.27842500  0.78520520  0.63779640  1
  Li  Li44  1  0.27842500  0.78520520  0.83779640  1
  Li  Li45  1  0.27842500  0.98520520  0.03779640  1
  Li  Li46  1  0.27842500  0.98520520  0.23779640  1
  Li  Li47  1  0.27842500  0.98520520  0.43779640  1
  Li  Li48  1  0.27842500  0.98520520  0.63779640  1
  Li  Li49  1  0.27842500  0.98520520  0.83779640  1
  Li  Li50  1  0.47842500  0.18520520  0.03779640  1
  Li  Li51  1  0.47842500  0.18520520  0.23779640  1
  Li  Li52  1  0.47842500  0.18520520  0.43779640  1
  Li  Li53  1  0.47842500  0.18520520  0.63779640  1
  Li  Li54  1  0.47842500  0.18520520  0.83779640  1
  Li  Li55  1  0.47842500  0.38520520  0.03779640  1
  Li  Li56  1  0.47842500  0.38520520  0.23779640  1
  Li  Li57  1  0.47842500  0.38520520  0.43779640  1
  Li  Li58  1  0.47842500  0.38520520  0.63779640  1
  Li  Li59  1  0.47842500  0.38520520  0.83779640  1
  Li  Li60  1  0.47842500  0.58520520  0.03779640  1
  Li  Li61  1  0.47842500  0.58520520  0.23779640  1
  Li  Li62  1  0.47842500  0.58520520  0.43779640  1
  Li  Li63  1  0.47842500  0.58520520  0.63779640  1
  Li  Li64  1  0.47842500  0.58520520  0.83779640  1
  Li  Li65  1  0.47842500  0.78520520  0.03779640  1
  Li  Li66  1  0.47842500  0.78520520  0.23779640  1
  Li  Li67  1  0.47842500  0.78520520  0.43779640  1
  Li  Li68  1  0.47842500  0.78520520  0.63779640  1
  Li  Li69  1  0.47842500  0.78520520  0.83779640  1
  Li  Li70  1  0.47842500  0.98520520  0.03779640  1
  Li  Li71  1  0.47842500  0.98520520  0.23779640  1
  Li  Li72  1  0.47842500  0.98520520  0.43779640  1
  Li  Li73  1  0.47842500  0.98520520  0.63779640  1
  Li  Li74  1  0.47842500  0.98520520  0.83779640  1
  Li  Li75  1  0.67842500  0.18520520  0.03779640  1
  Li  Li76  1  0.67842500  0.18520520  0.23779640  1
  Li  Li77  1  0.67842500  0.18520520  0.43779640  1
  Li  Li78  1  0.67842500  0.18520520  0.63779640  1
  Li  Li79  1  0.67842500  0.18520520  0.83779640  1
  Li  Li80  1  0.67842500  0.38520520  0.03779640  1
  Li  Li81  1  0.67842500  0.38520520  0.23779640  1
  Li  Li82  1  0.67842500  0.38520520  0.43779640  1
  Li  Li83  1  0.67842500  0.38520520  0.63779640  1
  Li  Li84  1  0.67842500  0.38520520  0.83779640  1
  Li  Li85  1  0.67842500  0.58520520  0.03779640  1
  Li  Li86  1  0.67842500  0.58520520  0.23779640  1
  Li  Li87  1  0.67842500  0.58520520  0.43779640  1
  Li  Li88  1  0.67842500  0.58520520  0.63779640  1
  Li  Li89  1  0.67842500  0.58520520  0.83779640  1
  Li  Li90  1  0.67842500  0.78520520  0.03779640  1
  Li  Li91  1  0.67842500  0.78520520  0.23779640  1
  Li  Li92  1  0.67842500  0.78520520  0.43779640  1
  Li  Li93  1  0.67842500  0.78520520  0.63779640  1
  Li  Li94  1  0.67842500  0.78520520  0.83779640  1
  Li  Li95  1  0.67842500  0.98520520  0.03779640  1
  Li  Li96  1  0.67842500  0.98520520  0.23779640  1
  Li  Li97  1  0.67842500  0.98520520  0.43779640  1
  Li  Li98  1  0.67842500  0.98520520  0.63779640  1
  Li  Li99  1  0.67842500  0.98520520  0.83779640  1
  Li  Li100  1  0.87842500  0.18520520  0.03779640  1
  Li  Li101  1  0.87842500  0.18520520  0.23779640  1
  Li  Li102  1  0.87842500  0.18520520  0.43779640  1
  Li  Li103  1  0.87842500  0.18520520  0.63779640  1
  Li  Li104  1  0.87842500  0.18520520  0.83779640  1
  Li  Li105  1  0.87842500  0.38520520  0.03779640  1
  Li  Li106  1  0.87842500  0.38520520  0.23779640  1
  Li  Li107  1  0.87842500  0.38520520  0.43779640  1
  Li  Li108  1  0.87842500  0.38520520  0.63779640  1
  Li  Li109  1  0.87842500  0.38520520  0.83779640  1
  Li  Li110  1  0.87842500  0.58520520  0.03779640  1
  Li  Li111  1  0.87842500  0.58520520  0.23779640  1
  Li  Li112  1  0.87842500  0.58520520  0.43779640  1
  Li  Li113  1  0.87842500  0.58520520  0.63779640  1
  Li  Li114  1  0.87842500  0.58520520  0.83779640  1
  Li  Li115  1  0.87842500  0.78520520  0.03779640  1
  Li  Li116  1  0.87842500  0.78520520  0.23779640  1
  Li  Li117  1  0.87842500  0.78520520  0.43779640  1
  Li  Li118  1  0.87842500  0.78520520  0.63779640  1
  Li  Li119  1  0.87842500  0.78520520  0.83779640  1
  Li  Li120  1  0.87842500  0.98520520  0.03779640  1
  Li  Li121  1  0.87842500  0.98520520  0.23779640  1
  Li  Li122  1  0.87842500  0.98520520  0.43779640  1
  Li  Li123  1  0.87842500  0.98520520  0.63779640  1
  Li  Li124  1  0.87842500  0.98520520  0.83779640  1
  Li  Li125  1  0.12157500  0.01479480  0.16220360  1
  Li  Li126  1  0.12157500  0.01479480  0.36220360  1
  Li  Li127  1  0.12157500  0.01479480  0.56220360  1
  Li  Li128  1  0.12157500  0.01479480  0.76220360  1
  Li  Li129  1  0.12157500  0.01479480  0.96220360  1
  Li  Li130  1  0.12157500  0.21479480  0.16220360  1
  Li  Li131  1  0.12157500  0.21479480  0.36220360  1
  Li  Li132  1  0.12157500  0.21479480  0.56220360  1
  Li  Li133  1  0.12157500  0.21479480  0.76220360  1
  Li  Li134  1  0.12157500  0.21479480  0.96220360  1
  Li  Li135  1  0.12157500  0.41479480  0.16220360  1
  Li  Li136  1  0.12157500  0.41479480  0.36220360  1
  Li  Li137  1  0.12157500  0.41479480  0.56220360  1
  Li  Li138  1  0.12157500  0.41479480  0.76220360  1
  Li  Li139  1  0.12157500  0.41479480  0.96220360  1
  Li  Li140  1  0.12157500  0.61479480  0.16220360  1
  Li  Li141  1  0.12157500  0.61479480  0.36220360  1
  Li  Li142  1  0.12157500  0.61479480  0.56220360  1
  Li  Li143  1  0.12157500  0.61479480  0.76220360  1
  Li  Li144  1  0.12157500  0.61479480  0.96220360  1
  Li  Li145  1  0.12157500  0.81479480  0.16220360  1
  Li  Li146  1  0.12157500  0.81479480  0.36220360  1
  Li  Li147  1  0.12157500  0.81479480  0.56220360  1
  Li  Li148  1  0.12157500  0.81479480  0.76220360  1
  Li  Li149  1  0.12157500  0.81479480  0.96220360  1
  Li  Li150  1  0.32157500  0.01479480  0.16220360  1
  Li  Li151  1  0.32157500  0.01479480  0.36220360  1
  Li  Li152  1  0.32157500  0.01479480  0.56220360  1
  Li  Li153  1  0.32157500  0.01479480  0.76220360  1
  Li  Li154  1  0.32157500  0.01479480  0.96220360  1
  Li  Li155  1  0.32157500  0.21479480  0.16220360  1
  Li  Li156  1  0.32157500  0.21479480  0.36220360  1
  Li  Li157  1  0.32157500  0.21479480  0.56220360  1
  Li  Li158  1  0.32157500  0.21479480  0.76220360  1
  Li  Li159  1  0.32157500  0.21479480  0.96220360  1
  Li  Li160  1  0.32157500  0.41479480  0.16220360  1
  Li  Li161  1  0.32157500  0.41479480  0.36220360  1
  Li  Li162  1  0.32157500  0.41479480  0.56220360  1
  Li  Li163  1  0.32157500  0.41479480  0.76220360  1
  Li  Li164  1  0.32157500  0.41479480  0.96220360  1
  Li  Li165  1  0.32157500  0.61479480  0.16220360  1
  Li  Li166  1  0.32157500  0.61479480  0.36220360  1
  Li  Li167  1  0.32157500  0.61479480  0.56220360  1
  Li  Li168  1  0.32157500  0.61479480  0.76220360  1
  Li  Li169  1  0.32157500  0.61479480  0.96220360  1
  Li  Li170  1  0.32157500  0.81479480  0.16220360  1
  Li  Li171  1  0.32157500  0.81479480  0.36220360  1
  Li  Li172  1  0.32157500  0.81479480  0.56220360  1
  Li  Li173  1  0.32157500  0.81479480  0.76220360  1
  Li  Li174  1  0.32157500  0.81479480  0.96220360  1
  Li  Li175  1  0.52157500  0.01479480  0.16220360  1
  Li  Li176  1  0.52157500  0.01479480  0.36220360  1
  Li  Li177  1  0.52157500  0.01479480  0.56220360  1
  Li  Li178  1  0.52157500  0.01479480  0.76220360  1
  Li  Li179  1  0.52157500  0.01479480  0.96220360  1
  Li  Li180  1  0.52157500  0.21479480  0.16220360  1
  Li  Li181  1  0.52157500  0.21479480  0.36220360  1
  Li  Li182  1  0.52157500  0.21479480  0.56220360  1
  Li  Li183  1  0.52157500  0.21479480  0.76220360  1
  Li  Li184  1  0.52157500  0.21479480  0.96220360  1
  Li  Li185  1  0.52157500  0.41479480  0.16220360  1
  Li  Li186  1  0.52157500  0.41479480  0.36220360  1
  Li  Li187  1  0.52157500  0.41479480  0.56220360  1
  Li  Li188  1  0.52157500  0.41479480  0.76220360  1
  Li  Li189  1  0.52157500  0.41479480  0.96220360  1
  Li  Li190  1  0.52157500  0.61479480  0.16220360  1
  Li  Li191  1  0.52157500  0.61479480  0.36220360  1
  Li  Li192  1  0.52157500  0.61479480  0.56220360  1
  Li  Li193  1  0.52157500  0.61479480  0.76220360  1
  Li  Li194  1  0.52157500  0.61479480  0.96220360  1
  Li  Li195  1  0.52157500  0.81479480  0.16220360  1
  Li  Li196  1  0.52157500  0.81479480  0.36220360  1
  Li  Li197  1  0.52157500  0.81479480  0.56220360  1
  Li  Li198  1  0.52157500  0.81479480  0.76220360  1
  Li  Li199  1  0.52157500  0.81479480  0.96220360  1
  Li  Li200  1  0.72157500  0.01479480  0.16220360  1
  Li  Li201  1  0.72157500  0.01479480  0.36220360  1
  Li  Li202  1  0.72157500  0.01479480  0.56220360  1
  Li  Li203  1  0.72157500  0.01479480  0.76220360  1
  Li  Li204  1  0.72157500  0.01479480  0.96220360  1
  Li  Li205  1  0.72157500  0.21479480  0.16220360  1
  Li  Li206  1  0.72157500  0.21479480  0.36220360  1
  Li  Li207  1  0.72157500  0.21479480  0.56220360  1
  Li  Li208  1  0.72157500  0.21479480  0.76220360  1
  Li  Li209  1  0.72157500  0.21479480  0.96220360  1
  Li  Li210  1  0.72157500  0.41479480  0.16220360  1
  Li  Li211  1  0.72157500  0.41479480  0.36220360  1
  Li  Li212  1  0.72157500  0.41479480  0.56220360  1
  Li  Li213  1  0.72157500  0.41479480  0.76220360  1
  Li  Li214  1  0.72157500  0.41479480  0.96220360  1
  Li  Li215  1  0.72157500  0.61479480  0.16220360  1
  Li  Li216  1  0.72157500  0.61479480  0.36220360  1
  Li  Li217  1  0.72157500  0.61479480  0.56220360  1
  Li  Li218  1  0.72157500  0.61479480  0.76220360  1
  Li  Li219  1  0.72157500  0.61479480  0.96220360  1
  Li  Li220  1  0.72157500  0.81479480  0.16220360  1
  Li  Li221  1  0.72157500  0.81479480  0.36220360  1
  Li  Li222  1  0.72157500  0.81479480  0.56220360  1
  Li  Li223  1  0.72157500  0.81479480  0.76220360  1
  Li  Li224  1  0.72157500  0.81479480  0.96220360  1
  Li  Li225  1  0.92157500  0.01479480  0.16220360  1
  Li  Li226  1  0.92157500  0.01479480  0.36220360  1
  Li  Li227  1  0.92157500  0.01479480  0.56220360  1
  Li  Li228  1  0.92157500  0.01479480  0.76220360  1
  Li  Li229  1  0.92157500  0.01479480  0.96220360  1
  Li  Li230  1  0.92157500  0.21479480  0.16220360  1
  Li  Li231  1  0.92157500  0.21479480  0.36220360  1
  Li  Li232  1  0.92157500  0.21479480  0.56220360  1
  Li  Li233  1  0.92157500  0.21479480  0.76220360  1
  Li  Li234  1  0.92157500  0.21479480  0.96220360  1
  Li  Li235  1  0.92157500  0.41479480  0.16220360  1
  Li  Li236  1  0.92157500  0.41479480  0.36220360  1
  Li  Li237  1  0.92157500  0.41479480  0.56220360  1
  Li  Li238  1  0.92157500  0.41479480  0.76220360  1
  Li  Li239  1  0.92157500  0.41479480  0.96220360  1
  Li  Li240  1  0.92157500  0.61479480  0.16220360  1
  Li  Li241  1  0.92157500  0.61479480  0.36220360  1
  Li  Li242  1  0.92157500  0.61479480  0.56220360  1
  Li  Li243  1  0.92157500  0.61479480  0.76220360  1
  Li  Li244  1  0.92157500  0.61479480  0.96220360  1
  Li  Li245  1  0.92157500  0.81479480  0.16220360  1
  Li  Li246  1  0.92157500  0.81479480  0.36220360  1
  Li  Li247  1  0.92157500  0.81479480  0.56220360  1
  Li  Li248  1  0.92157500  0.81479480  0.76220360  1
  Li  Li249  1  0.92157500  0.81479480  0.96220360  1
  U  U250  1  0.17642380  0.16852360  0.12629720  1
  U  U251  1  0.17642380  0.16852360  0.32629720  1
  U  U252  1  0.17642380  0.16852360  0.52629720  1
  U  U253  1  0.17642380  0.16852360  0.72629720  1
  U  U254  1  0.17642380  0.16852360  0.92629720  1
  U  U255  1  0.17642380  0.36852360  0.12629720  1
  U  U256  1  0.17642380  0.36852360  0.32629720  1
  U  U257  1  0.17642380  0.36852360  0.52629720  1
  U  U258  1  0.17642380  0.36852360  0.72629720  1
  U  U259  1  0.17642380  0.36852360  0.92629720  1
  U  U260  1  0.17642380  0.56852360  0.12629720  1
  U  U261  1  0.17642380  0.56852360  0.32629720  1
  U  U262  1  0.17642380  0.56852360  0.52629720  1
  U  U263  1  0.17642380  0.56852360  0.72629720  1
  U  U264  1  0.17642380  0.56852360  0.92629720  1
  U  U265  1  0.17642380  0.76852360  0.12629720  1
  U  U266  1  0.17642380  0.76852360  0.32629720  1
  U  U267  1  0.17642380  0.76852360  0.52629720  1
  U  U268  1  0.17642380  0.76852360  0.72629720  1
  U  U269  1  0.17642380  0.76852360  0.92629720  1
  U  U270  1  0.17642380  0.96852360  0.12629720  1
  U  U271  1  0.17642380  0.96852360  0.32629720  1
  U  U272  1  0.17642380  0.96852360  0.52629720  1
  U  U273  1  0.17642380  0.96852360  0.72629720  1
  U  U274  1  0.17642380  0.96852360  0.92629720  1
  U  U275  1  0.37642380  0.16852360  0.12629720  1
  U  U276  1  0.37642380  0.16852360  0.32629720  1
  U  U277  1  0.37642380  0.16852360  0.52629720  1
  U  U278  1  0.37642380  0.16852360  0.72629720  1
  U  U279  1  0.37642380  0.16852360  0.92629720  1
  U  U280  1  0.37642380  0.36852360  0.12629720  1
  U  U281  1  0.37642380  0.36852360  0.32629720  1
  U  U282  1  0.37642380  0.36852360  0.52629720  1
  U  U283  1  0.37642380  0.36852360  0.72629720  1
  U  U284  1  0.37642380  0.36852360  0.92629720  1
  U  U285  1  0.37642380  0.56852360  0.12629720  1
  U  U286  1  0.37642380  0.56852360  0.32629720  1
  U  U287  1  0.37642380  0.56852360  0.52629720  1
  U  U288  1  0.37642380  0.56852360  0.72629720  1
  U  U289  1  0.37642380  0.56852360  0.92629720  1
  U  U290  1  0.37642380  0.76852360  0.12629720  1
  U  U291  1  0.37642380  0.76852360  0.32629720  1
  U  U292  1  0.37642380  0.76852360  0.52629720  1
  U  U293  1  0.37642380  0.76852360  0.72629720  1
  U  U294  1  0.37642380  0.76852360  0.92629720  1
  U  U295  1  0.37642380  0.96852360  0.12629720  1
  U  U296  1  0.37642380  0.96852360  0.32629720  1
  U  U297  1  0.37642380  0.96852360  0.52629720  1
  U  U298  1  0.37642380  0.96852360  0.72629720  1
  U  U299  1  0.37642380  0.96852360  0.92629720  1
  U  U300  1  0.57642380  0.16852360  0.12629720  1
  U  U301  1  0.57642380  0.16852360  0.32629720  1
  U  U302  1  0.57642380  0.16852360  0.52629720  1
  U  U303  1  0.57642380  0.16852360  0.72629720  1
  U  U304  1  0.57642380  0.16852360  0.92629720  1
  U  U305  1  0.57642380  0.36852360  0.12629720  1
  U  U306  1  0.57642380  0.36852360  0.32629720  1
  U  U307  1  0.57642380  0.36852360  0.52629720  1
  U  U308  1  0.57642380  0.36852360  0.72629720  1
  U  U309  1  0.57642380  0.36852360  0.92629720  1
  U  U310  1  0.57642380  0.56852360  0.12629720  1
  U  U311  1  0.57642380  0.56852360  0.32629720  1
  U  U312  1  0.57642380  0.56852360  0.52629720  1
  U  U313  1  0.57642380  0.56852360  0.72629720  1
  U  U314  1  0.57642380  0.56852360  0.92629720  1
  U  U315  1  0.57642380  0.76852360  0.12629720  1
  U  U316  1  0.57642380  0.76852360  0.32629720  1
  U  U317  1  0.57642380  0.76852360  0.52629720  1
  U  U318  1  0.57642380  0.76852360  0.72629720  1
  U  U319  1  0.57642380  0.76852360  0.92629720  1
  U  U320  1  0.57642380  0.96852360  0.12629720  1
  U  U321  1  0.57642380  0.96852360  0.32629720  1
  U  U322  1  0.57642380  0.96852360  0.52629720  1
  U  U323  1  0.57642380  0.96852360  0.72629720  1
  U  U324  1  0.57642380  0.96852360  0.92629720  1
  U  U325  1  0.77642380  0.16852360  0.12629720  1
  U  U326  1  0.77642380  0.16852360  0.32629720  1
  U  U327  1  0.77642380  0.16852360  0.52629720  1
  U  U328  1  0.77642380  0.16852360  0.72629720  1
  U  U329  1  0.77642380  0.16852360  0.92629720  1
  U  U330  1  0.77642380  0.36852360  0.12629720  1
  U  U331  1  0.77642380  0.36852360  0.32629720  1
  U  U332  1  0.77642380  0.36852360  0.52629720  1
  U  U333  1  0.77642380  0.36852360  0.72629720  1
  U  U334  1  0.77642380  0.36852360  0.92629720  1
  U  U335  1  0.77642380  0.56852360  0.12629720  1
  U  U336  1  0.77642380  0.56852360  0.32629720  1
  U  U337  1  0.77642380  0.56852360  0.52629720  1
  U  U338  1  0.77642380  0.56852360  0.72629720  1
  U  U339  1  0.77642380  0.56852360  0.92629720  1
  U  U340  1  0.77642380  0.76852360  0.12629720  1
  U  U341  1  0.77642380  0.76852360  0.32629720  1
  U  U342  1  0.77642380  0.76852360  0.52629720  1
  U  U343  1  0.77642380  0.76852360  0.72629720  1
  U  U344  1  0.77642380  0.76852360  0.92629720  1
  U  U345  1  0.77642380  0.96852360  0.12629720  1
  U  U346  1  0.77642380  0.96852360  0.32629720  1
  U  U347  1  0.77642380  0.96852360  0.52629720  1
  U  U348  1  0.77642380  0.96852360  0.72629720  1
  U  U349  1  0.77642380  0.96852360  0.92629720  1
  U  U350  1  0.97642380  0.16852360  0.12629720  1
  U  U351  1  0.97642380  0.16852360  0.32629720  1
  U  U352  1  0.97642380  0.16852360  0.52629720  1
  U  U353  1  0.97642380  0.16852360  0.72629720  1
  U  U354  1  0.97642380  0.16852360  0.92629720  1
  U  U355  1  0.97642380  0.36852360  0.12629720  1
  U  U356  1  0.97642380  0.36852360  0.32629720  1
  U  U357  1  0.97642380  0.36852360  0.52629720  1
  U  U358  1  0.97642380  0.36852360  0.72629720  1
  U  U359  1  0.97642380  0.36852360  0.92629720  1
  U  U360  1  0.97642380  0.56852360  0.12629720  1
  U  U361  1  0.97642380  0.56852360  0.32629720  1
  U  U362  1  0.97642380  0.56852360  0.52629720  1
  U  U363  1  0.97642380  0.56852360  0.72629720  1
  U  U364  1  0.97642380  0.56852360  0.92629720  1
  U  U365  1  0.97642380  0.76852360  0.12629720  1
  U  U366  1  0.97642380  0.76852360  0.32629720  1
  U  U367  1  0.97642380  0.76852360  0.52629720  1
  U  U368  1  0.97642380  0.76852360  0.72629720  1
  U  U369  1  0.97642380  0.76852360  0.92629720  1
  U  U370  1  0.97642380  0.96852360  0.12629720  1
  U  U371  1  0.97642380  0.96852360  0.32629720  1
  U  U372  1  0.97642380  0.96852360  0.52629720  1
  U  U373  1  0.97642380  0.96852360  0.72629720  1
  U  U374  1  0.97642380  0.96852360  0.92629720  1
  U  U375  1  0.02357620  0.03147640  0.07370280  1
  U  U376  1  0.02357620  0.03147640  0.27370280  1
  U  U377  1  0.02357620  0.03147640  0.47370280  1
  U  U378  1  0.02357620  0.03147640  0.67370280  1
  U  U379  1  0.02357620  0.03147640  0.87370280  1
  U  U380  1  0.02357620  0.23147640  0.07370280  1
  U  U381  1  0.02357620  0.23147640  0.27370280  1
  U  U382  1  0.02357620  0.23147640  0.47370280  1
  U  U383  1  0.02357620  0.23147640  0.67370280  1
  U  U384  1  0.02357620  0.23147640  0.87370280  1
  U  U385  1  0.02357620  0.43147640  0.07370280  1
  U  U386  1  0.02357620  0.43147640  0.27370280  1
  U  U387  1  0.02357620  0.43147640  0.47370280  1
  U  U388  1  0.02357620  0.43147640  0.67370280  1
  U  U389  1  0.02357620  0.43147640  0.87370280  1
  U  U390  1  0.02357620  0.63147640  0.07370280  1
  U  U391  1  0.02357620  0.63147640  0.27370280  1
  U  U392  1  0.02357620  0.63147640  0.47370280  1
  U  U393  1  0.02357620  0.63147640  0.67370280  1
  U  U394  1  0.02357620  0.63147640  0.87370280  1
  U  U395  1  0.02357620  0.83147640  0.07370280  1
  U  U396  1  0.02357620  0.83147640  0.27370280  1
  U  U397  1  0.02357620  0.83147640  0.47370280  1
  U  U398  1  0.02357620  0.83147640  0.67370280  1
  U  U399  1  0.02357620  0.83147640  0.87370280  1
  U  U400  1  0.22357620  0.03147640  0.07370280  1
  U  U401  1  0.22357620  0.03147640  0.27370280  1
  U  U402  1  0.22357620  0.03147640  0.47370280  1
  U  U403  1  0.22357620  0.03147640  0.67370280  1
  U  U404  1  0.22357620  0.03147640  0.87370280  1
  U  U405  1  0.22357620  0.23147640  0.07370280  1
  U  U406  1  0.22357620  0.23147640  0.27370280  1
  U  U407  1  0.22357620  0.23147640  0.47370280  1
  U  U408  1  0.22357620  0.23147640  0.67370280  1
  U  U409  1  0.22357620  0.23147640  0.87370280  1
  U  U410  1  0.22357620  0.43147640  0.07370280  1
  U  U411  1  0.22357620  0.43147640  0.27370280  1
  U  U412  1  0.22357620  0.43147640  0.47370280  1
  U  U413  1  0.22357620  0.43147640  0.67370280  1
  U  U414  1  0.22357620  0.43147640  0.87370280  1
  U  U415  1  0.22357620  0.63147640  0.07370280  1
  U  U416  1  0.22357620  0.63147640  0.27370280  1
  U  U417  1  0.22357620  0.63147640  0.47370280  1
  U  U418  1  0.22357620  0.63147640  0.67370280  1
  U  U419  1  0.22357620  0.63147640  0.87370280  1
  U  U420  1  0.22357620  0.83147640  0.07370280  1
  U  U421  1  0.22357620  0.83147640  0.27370280  1
  U  U422  1  0.22357620  0.83147640  0.47370280  1
  U  U423  1  0.22357620  0.83147640  0.67370280  1
  U  U424  1  0.22357620  0.83147640  0.87370280  1
  U  U425  1  0.42357620  0.03147640  0.07370280  1
  U  U426  1  0.42357620  0.03147640  0.27370280  1
  U  U427  1  0.42357620  0.03147640  0.47370280  1
  U  U428  1  0.42357620  0.03147640  0.67370280  1
  U  U429  1  0.42357620  0.03147640  0.87370280  1
  U  U430  1  0.42357620  0.23147640  0.07370280  1
  U  U431  1  0.42357620  0.23147640  0.27370280  1
  U  U432  1  0.42357620  0.23147640  0.47370280  1
  U  U433  1  0.42357620  0.23147640  0.67370280  1
  U  U434  1  0.42357620  0.23147640  0.87370280  1
  U  U435  1  0.42357620  0.43147640  0.07370280  1
  U  U436  1  0.42357620  0.43147640  0.27370280  1
  U  U437  1  0.42357620  0.43147640  0.47370280  1
  U  U438  1  0.42357620  0.43147640  0.67370280  1
  U  U439  1  0.42357620  0.43147640  0.87370280  1
  U  U440  1  0.42357620  0.63147640  0.07370280  1
  U  U441  1  0.42357620  0.63147640  0.27370280  1
  U  U442  1  0.42357620  0.63147640  0.47370280  1
  U  U443  1  0.42357620  0.63147640  0.67370280  1
  U  U444  1  0.42357620  0.63147640  0.87370280  1
  U  U445  1  0.42357620  0.83147640  0.07370280  1
  U  U446  1  0.42357620  0.83147640  0.27370280  1
  U  U447  1  0.42357620  0.83147640  0.47370280  1
  U  U448  1  0.42357620  0.83147640  0.67370280  1
  U  U449  1  0.42357620  0.83147640  0.87370280  1
  U  U450  1  0.62357620  0.03147640  0.07370280  1
  U  U451  1  0.62357620  0.03147640  0.27370280  1
  U  U452  1  0.62357620  0.03147640  0.47370280  1
  U  U453  1  0.62357620  0.03147640  0.67370280  1
  U  U454  1  0.62357620  0.03147640  0.87370280  1
  U  U455  1  0.62357620  0.23147640  0.07370280  1
  U  U456  1  0.62357620  0.23147640  0.27370280  1
  U  U457  1  0.62357620  0.23147640  0.47370280  1
  U  U458  1  0.62357620  0.23147640  0.67370280  1
  U  U459  1  0.62357620  0.23147640  0.87370280  1
  U  U460  1  0.62357620  0.43147640  0.07370280  1
  U  U461  1  0.62357620  0.43147640  0.27370280  1
  U  U462  1  0.62357620  0.43147640  0.47370280  1
  U  U463  1  0.62357620  0.43147640  0.67370280  1
  U  U464  1  0.62357620  0.43147640  0.87370280  1
  U  U465  1  0.62357620  0.63147640  0.07370280  1
  U  U466  1  0.62357620  0.63147640  0.27370280  1
  U  U467  1  0.62357620  0.63147640  0.47370280  1
  U  U468  1  0.62357620  0.63147640  0.67370280  1
  U  U469  1  0.62357620  0.63147640  0.87370280  1
  U  U470  1  0.62357620  0.83147640  0.07370280  1
  U  U471  1  0.62357620  0.83147640  0.27370280  1
  U  U472  1  0.62357620  0.83147640  0.47370280  1
  U  U473  1  0.62357620  0.83147640  0.67370280  1
  U  U474  1  0.62357620  0.83147640  0.87370280  1
  U  U475  1  0.82357620  0.03147640  0.07370280  1
  U  U476  1  0.82357620  0.03147640  0.27370280  1
  U  U477  1  0.82357620  0.03147640  0.47370280  1
  U  U478  1  0.82357620  0.03147640  0.67370280  1
  U  U479  1  0.82357620  0.03147640  0.87370280  1
  U  U480  1  0.82357620  0.23147640  0.07370280  1
  U  U481  1  0.82357620  0.23147640  0.27370280  1
  U  U482  1  0.82357620  0.23147640  0.47370280  1
  U  U483  1  0.82357620  0.23147640  0.67370280  1
  U  U484  1  0.82357620  0.23147640  0.87370280  1
  U  U485  1  0.82357620  0.43147640  0.07370280  1
  U  U486  1  0.82357620  0.43147640  0.27370280  1
  U  U487  1  0.82357620  0.43147640  0.47370280  1
  U  U488  1  0.82357620  0.43147640  0.67370280  1
  U  U489  1  0.82357620  0.43147640  0.87370280  1
  U  U490  1  0.82357620  0.63147640  0.07370280  1
  U  U491  1  0.82357620  0.63147640  0.27370280  1
  U  U492  1  0.82357620  0.63147640  0.47370280  1
  U  U493  1  0.82357620  0.63147640  0.67370280  1
  U  U494  1  0.82357620  0.63147640  0.87370280  1
  U  U495  1  0.82357620  0.83147640  0.07370280  1
  U  U496  1  0.82357620  0.83147640  0.27370280  1
  U  U497  1  0.82357620  0.83147640  0.47370280  1
  U  U498  1  0.82357620  0.83147640  0.67370280  1
  U  U499  1  0.82357620  0.83147640  0.87370280  1
  U  U500  1  1.00000000  0.10000000  0.00000000  1
  U  U501  1  1.00000000  0.10000000  0.20000000  1
  U  U502  1  1.00000000  0.10000000  0.40000000  1
  U  U503  1  1.00000000  0.10000000  0.60000000  1
  U  U504  1  1.00000000  0.10000000  0.80000000  1
  U  U505  1  1.00000000  0.30000000  0.00000000  1
  U  U506  1  0.00000000  0.30000000  0.20000000  1
  U  U507  1  0.00000000  0.30000000  0.40000000  1
  U  U508  1  1.00000000  0.30000000  0.60000000  1
  U  U509  1  1.00000000  0.30000000  0.80000000  1
  U  U510  1  0.00000000  0.50000000  0.00000000  1
  U  U511  1  1.00000000  0.50000000  0.20000000  1
  U  U512  1  0.00000000  0.50000000  0.40000000  1
  U  U513  1  0.00000000  0.50000000  0.60000000  1
  U  U514  1  1.00000000  0.50000000  0.80000000  1
  U  U515  1  0.00000000  0.70000000  0.00000000  1
  U  U516  1  0.00000000  0.70000000  0.20000000  1
  U  U517  1  0.00000000  0.70000000  0.40000000  1
  U  U518  1  0.00000000  0.70000000  0.60000000  1
  U  U519  1  1.00000000  0.70000000  0.80000000  1
  U  U520  1  0.00000000  0.90000000  0.00000000  1
  U  U521  1  0.00000000  0.90000000  0.20000000  1
  U  U522  1  1.00000000  0.90000000  0.40000000  1
  U  U523  1  1.00000000  0.90000000  0.60000000  1
  U  U524  1  0.00000000  0.90000000  0.80000000  1
  U  U525  1  0.20000000  0.10000000  0.00000000  1
  U  U526  1  0.20000000  0.10000000  0.20000000  1
  U  U527  1  0.20000000  0.10000000  0.40000000  1
  U  U528  1  0.20000000  0.10000000  0.60000000  1
  U  U529  1  0.20000000  0.10000000  0.80000000  1
  U  U530  1  0.20000000  0.30000000  0.00000000  1
  U  U531  1  0.20000000  0.30000000  0.20000000  1
  U  U532  1  0.20000000  0.30000000  0.40000000  1
  U  U533  1  0.20000000  0.30000000  0.60000000  1
  U  U534  1  0.20000000  0.30000000  0.80000000  1
  U  U535  1  0.20000000  0.50000000  0.00000000  1
  U  U536  1  0.20000000  0.50000000  0.20000000  1
  U  U537  1  0.20000000  0.50000000  0.40000000  1
  U  U538  1  0.20000000  0.50000000  0.60000000  1
  U  U539  1  0.20000000  0.50000000  0.80000000  1
  U  U540  1  0.20000000  0.70000000  0.00000000  1
  U  U541  1  0.20000000  0.70000000  0.20000000  1
  U  U542  1  0.20000000  0.70000000  0.40000000  1
  U  U543  1  0.20000000  0.70000000  0.60000000  1
  U  U544  1  0.20000000  0.70000000  0.80000000  1
  U  U545  1  0.20000000  0.90000000  0.00000000  1
  U  U546  1  0.20000000  0.90000000  0.20000000  1
  U  U547  1  0.20000000  0.90000000  0.40000000  1
  U  U548  1  0.20000000  0.90000000  0.60000000  1
  U  U549  1  0.20000000  0.90000000  0.80000000  1
  U  U550  1  0.40000000  0.10000000  0.00000000  1
  U  U551  1  0.40000000  0.10000000  0.20000000  1
  U  U552  1  0.40000000  0.10000000  0.40000000  1
  U  U553  1  0.40000000  0.10000000  0.60000000  1
  U  U554  1  0.40000000  0.10000000  0.80000000  1
  U  U555  1  0.40000000  0.30000000  0.00000000  1
  U  U556  1  0.40000000  0.30000000  0.20000000  1
  U  U557  1  0.40000000  0.30000000  0.40000000  1
  U  U558  1  0.40000000  0.30000000  0.60000000  1
  U  U559  1  0.40000000  0.30000000  0.80000000  1
  U  U560  1  0.40000000  0.50000000  0.00000000  1
  U  U561  1  0.40000000  0.50000000  0.20000000  1
  U  U562  1  0.40000000  0.50000000  0.40000000  1
  U  U563  1  0.40000000  0.50000000  0.60000000  1
  U  U564  1  0.40000000  0.50000000  0.80000000  1
  U  U565  1  0.40000000  0.70000000  0.00000000  1
  U  U566  1  0.40000000  0.70000000  0.20000000  1
  U  U567  1  0.40000000  0.70000000  0.40000000  1
  U  U568  1  0.40000000  0.70000000  0.60000000  1
  U  U569  1  0.40000000  0.70000000  0.80000000  1
  U  U570  1  0.40000000  0.90000000  0.00000000  1
  U  U571  1  0.40000000  0.90000000  0.20000000  1
  U  U572  1  0.40000000  0.90000000  0.40000000  1
  U  U573  1  0.40000000  0.90000000  0.60000000  1
  U  U574  1  0.40000000  0.90000000  0.80000000  1
  U  U575  1  0.60000000  0.10000000  0.00000000  1
  U  U576  1  0.60000000  0.10000000  0.20000000  1
  U  U577  1  0.60000000  0.10000000  0.40000000  1
  U  U578  1  0.60000000  0.10000000  0.60000000  1
  U  U579  1  0.60000000  0.10000000  0.80000000  1
  U  U580  1  0.60000000  0.30000000  0.00000000  1
  U  U581  1  0.60000000  0.30000000  0.20000000  1
  U  U582  1  0.60000000  0.30000000  0.40000000  1
  U  U583  1  0.60000000  0.30000000  0.60000000  1
  U  U584  1  0.60000000  0.30000000  0.80000000  1
  U  U585  1  0.60000000  0.50000000  0.00000000  1
  U  U586  1  0.60000000  0.50000000  0.20000000  1
  U  U587  1  0.60000000  0.50000000  0.40000000  1
  U  U588  1  0.60000000  0.50000000  0.60000000  1
  U  U589  1  0.60000000  0.50000000  0.80000000  1
  U  U590  1  0.60000000  0.70000000  0.00000000  1
  U  U591  1  0.60000000  0.70000000  0.20000000  1
  U  U592  1  0.60000000  0.70000000  0.40000000  1
  U  U593  1  0.60000000  0.70000000  0.60000000  1
  U  U594  1  0.60000000  0.70000000  0.80000000  1
  U  U595  1  0.60000000  0.90000000  0.00000000  1
  U  U596  1  0.60000000  0.90000000  0.20000000  1
  U  U597  1  0.60000000  0.90000000  0.40000000  1
  U  U598  1  0.60000000  0.90000000  0.60000000  1
  U  U599  1  0.60000000  0.90000000  0.80000000  1
  U  U600  1  0.80000000  0.10000000  0.00000000  1
  U  U601  1  0.80000000  0.10000000  0.20000000  1
  U  U602  1  0.80000000  0.10000000  0.40000000  1
  U  U603  1  0.80000000  0.10000000  0.60000000  1
  U  U604  1  0.80000000  0.10000000  0.80000000  1
  U  U605  1  0.80000000  0.30000000  0.00000000  1
  U  U606  1  0.80000000  0.30000000  0.20000000  1
  U  U607  1  0.80000000  0.30000000  0.40000000  1
  U  U608  1  0.80000000  0.30000000  0.60000000  1
  U  U609  1  0.80000000  0.30000000  0.80000000  1
  U  U610  1  0.80000000  0.50000000  0.00000000  1
  U  U611  1  0.80000000  0.50000000  0.20000000  1
  U  U612  1  0.80000000  0.50000000  0.40000000  1
  U  U613  1  0.80000000  0.50000000  0.60000000  1
  U  U614  1  0.80000000  0.50000000  0.80000000  1
  U  U615  1  0.80000000  0.70000000  0.00000000  1
  U  U616  1  0.80000000  0.70000000  0.20000000  1
  U  U617  1  0.80000000  0.70000000  0.40000000  1
  U  U618  1  0.80000000  0.70000000  0.60000000  1
  U  U619  1  0.80000000  0.70000000  0.80000000  1
  U  U620  1  0.80000000  0.90000000  0.00000000  1
  U  U621  1  0.80000000  0.90000000  0.20000000  1
  U  U622  1  0.80000000  0.90000000  0.40000000  1
  U  U623  1  0.80000000  0.90000000  0.60000000  1
  U  U624  1  0.80000000  0.90000000  0.80000000  1
  P  P625  1  0.19863340  0.06585240  0.12863840  1
  P  P626  1  0.19863340  0.06585240  0.32863840  1
  P  P627  1  0.19863340  0.06585240  0.52863840  1
  P  P628  1  0.19863340  0.06585240  0.72863840  1
  P  P629  1  0.19863340  0.06585240  0.92863840  1
  P  P630  1  0.19863340  0.26585240  0.12863840  1
  P  P631  1  0.19863340  0.26585240  0.32863840  1
  P  P632  1  0.19863340  0.26585240  0.52863840  1
  P  P633  1  0.19863340  0.26585240  0.72863840  1
  P  P634  1  0.19863340  0.26585240  0.92863840  1
  P  P635  1  0.19863340  0.46585240  0.12863840  1
  P  P636  1  0.19863340  0.46585240  0.32863840  1
  P  P637  1  0.19863340  0.46585240  0.52863840  1
  P  P638  1  0.19863340  0.46585240  0.72863840  1
  P  P639  1  0.19863340  0.46585240  0.92863840  1
  P  P640  1  0.19863340  0.66585240  0.12863840  1
  P  P641  1  0.19863340  0.66585240  0.32863840  1
  P  P642  1  0.19863340  0.66585240  0.52863840  1
  P  P643  1  0.19863340  0.66585240  0.72863840  1
  P  P644  1  0.19863340  0.66585240  0.92863840  1
  P  P645  1  0.19863340  0.86585240  0.12863840  1
  P  P646  1  0.19863340  0.86585240  0.32863840  1
  P  P647  1  0.19863340  0.86585240  0.52863840  1
  P  P648  1  0.19863340  0.86585240  0.72863840  1
  P  P649  1  0.19863340  0.86585240  0.92863840  1
  P  P650  1  0.39863340  0.06585240  0.12863840  1
  P  P651  1  0.39863340  0.06585240  0.32863840  1
  P  P652  1  0.39863340  0.06585240  0.52863840  1
  P  P653  1  0.39863340  0.06585240  0.72863840  1
  P  P654  1  0.39863340  0.06585240  0.92863840  1
  P  P655  1  0.39863340  0.26585240  0.12863840  1
  P  P656  1  0.39863340  0.26585240  0.32863840  1
  P  P657  1  0.39863340  0.26585240  0.52863840  1
  P  P658  1  0.39863340  0.26585240  0.72863840  1
  P  P659  1  0.39863340  0.26585240  0.92863840  1
  P  P660  1  0.39863340  0.46585240  0.12863840  1
  P  P661  1  0.39863340  0.46585240  0.32863840  1
  P  P662  1  0.39863340  0.46585240  0.52863840  1
  P  P663  1  0.39863340  0.46585240  0.72863840  1
  P  P664  1  0.39863340  0.46585240  0.92863840  1
  P  P665  1  0.39863340  0.66585240  0.12863840  1
  P  P666  1  0.39863340  0.66585240  0.32863840  1
  P  P667  1  0.39863340  0.66585240  0.52863840  1
  P  P668  1  0.39863340  0.66585240  0.72863840  1
  P  P669  1  0.39863340  0.66585240  0.92863840  1
  P  P670  1  0.39863340  0.86585240  0.12863840  1
  P  P671  1  0.39863340  0.86585240  0.32863840  1
  P  P672  1  0.39863340  0.86585240  0.52863840  1
  P  P673  1  0.39863340  0.86585240  0.72863840  1
  P  P674  1  0.39863340  0.86585240  0.92863840  1
  P  P675  1  0.59863340  0.06585240  0.12863840  1
  P  P676  1  0.59863340  0.06585240  0.32863840  1
  P  P677  1  0.59863340  0.06585240  0.52863840  1
  P  P678  1  0.59863340  0.06585240  0.72863840  1
  P  P679  1  0.59863340  0.06585240  0.92863840  1
  P  P680  1  0.59863340  0.26585240  0.12863840  1
  P  P681  1  0.59863340  0.26585240  0.32863840  1
  P  P682  1  0.59863340  0.26585240  0.52863840  1
  P  P683  1  0.59863340  0.26585240  0.72863840  1
  P  P684  1  0.59863340  0.26585240  0.92863840  1
  P  P685  1  0.59863340  0.46585240  0.12863840  1
  P  P686  1  0.59863340  0.46585240  0.32863840  1
  P  P687  1  0.59863340  0.46585240  0.52863840  1
  P  P688  1  0.59863340  0.46585240  0.72863840  1
  P  P689  1  0.59863340  0.46585240  0.92863840  1
  P  P690  1  0.59863340  0.66585240  0.12863840  1
  P  P691  1  0.59863340  0.66585240  0.32863840  1
  P  P692  1  0.59863340  0.66585240  0.52863840  1
  P  P693  1  0.59863340  0.66585240  0.72863840  1
  P  P694  1  0.59863340  0.66585240  0.92863840  1
  P  P695  1  0.59863340  0.86585240  0.12863840  1
  P  P696  1  0.59863340  0.86585240  0.32863840  1
  P  P697  1  0.59863340  0.86585240  0.52863840  1
  P  P698  1  0.59863340  0.86585240  0.72863840  1
  P  P699  1  0.59863340  0.86585240  0.92863840  1
  P  P700  1  0.79863340  0.06585240  0.12863840  1
  P  P701  1  0.79863340  0.06585240  0.32863840  1
  P  P702  1  0.79863340  0.06585240  0.52863840  1
  P  P703  1  0.79863340  0.06585240  0.72863840  1
  P  P704  1  0.79863340  0.06585240  0.92863840  1
  P  P705  1  0.79863340  0.26585240  0.12863840  1
  P  P706  1  0.79863340  0.26585240  0.32863840  1
  P  P707  1  0.79863340  0.26585240  0.52863840  1
  P  P708  1  0.79863340  0.26585240  0.72863840  1
  P  P709  1  0.79863340  0.26585240  0.92863840  1
  P  P710  1  0.79863340  0.46585240  0.12863840  1
  P  P711  1  0.79863340  0.46585240  0.32863840  1
  P  P712  1  0.79863340  0.46585240  0.52863840  1
  P  P713  1  0.79863340  0.46585240  0.72863840  1
  P  P714  1  0.79863340  0.46585240  0.92863840  1
  P  P715  1  0.79863340  0.66585240  0.12863840  1
  P  P716  1  0.79863340  0.66585240  0.32863840  1
  P  P717  1  0.79863340  0.66585240  0.52863840  1
  P  P718  1  0.79863340  0.66585240  0.72863840  1
  P  P719  1  0.79863340  0.66585240  0.92863840  1
  P  P720  1  0.79863340  0.86585240  0.12863840  1
  P  P721  1  0.79863340  0.86585240  0.32863840  1
  P  P722  1  0.79863340  0.86585240  0.52863840  1
  P  P723  1  0.79863340  0.86585240  0.72863840  1
  P  P724  1  0.79863340  0.86585240  0.92863840  1
  P  P725  1  0.99863340  0.06585240  0.12863840  1
  P  P726  1  0.99863340  0.06585240  0.32863840  1
  P  P727  1  0.99863340  0.06585240  0.52863840  1
  P  P728  1  0.99863340  0.06585240  0.72863840  1
  P  P729  1  0.99863340  0.06585240  0.92863840  1
  P  P730  1  0.99863340  0.26585240  0.12863840  1
  P  P731  1  0.99863340  0.26585240  0.32863840  1
  P  P732  1  0.99863340  0.26585240  0.52863840  1
  P  P733  1  0.99863340  0.26585240  0.72863840  1
  P  P734  1  0.99863340  0.26585240  0.92863840  1
  P  P735  1  0.99863340  0.46585240  0.12863840  1
  P  P736  1  0.99863340  0.46585240  0.32863840  1
  P  P737  1  0.99863340  0.46585240  0.52863840  1
  P  P738  1  0.99863340  0.46585240  0.72863840  1
  P  P739  1  0.99863340  0.46585240  0.92863840  1
  P  P740  1  0.99863340  0.66585240  0.12863840  1
  P  P741  1  0.99863340  0.66585240  0.32863840  1
  P  P742  1  0.99863340  0.66585240  0.52863840  1
  P  P743  1  0.99863340  0.66585240  0.72863840  1
  P  P744  1  0.99863340  0.66585240  0.92863840  1
  P  P745  1  0.99863340  0.86585240  0.12863840  1
  P  P746  1  0.99863340  0.86585240  0.32863840  1
  P  P747  1  0.99863340  0.86585240  0.52863840  1
  P  P748  1  0.99863340  0.86585240  0.72863840  1
  P  P749  1  0.99863340  0.86585240  0.92863840  1
  P  P750  1  0.09583600  0.11449880  0.16295760  1
  P  P751  1  0.09583600  0.11449880  0.36295760  1
  P  P752  1  0.09583600  0.11449880  0.56295760  1
  P  P753  1  0.09583600  0.11449880  0.76295760  1
  P  P754  1  0.09583600  0.11449880  0.96295760  1
  P  P755  1  0.09583600  0.31449880  0.16295760  1
  P  P756  1  0.09583600  0.31449880  0.36295760  1
  P  P757  1  0.09583600  0.31449880  0.56295760  1
  P  P758  1  0.09583600  0.31449880  0.76295760  1
  P  P759  1  0.09583600  0.31449880  0.96295760  1
  P  P760  1  0.09583600  0.51449880  0.16295760  1
  P  P761  1  0.09583600  0.51449880  0.36295760  1
  P  P762  1  0.09583600  0.51449880  0.56295760  1
  P  P763  1  0.09583600  0.51449880  0.76295760  1
  P  P764  1  0.09583600  0.51449880  0.96295760  1
  P  P765  1  0.09583600  0.71449880  0.16295760  1
  P  P766  1  0.09583600  0.71449880  0.36295760  1
  P  P767  1  0.09583600  0.71449880  0.56295760  1
  P  P768  1  0.09583600  0.71449880  0.76295760  1
  P  P769  1  0.09583600  0.71449880  0.96295760  1
  P  P770  1  0.09583600  0.91449880  0.16295760  1
  P  P771  1  0.09583600  0.91449880  0.36295760  1
  P  P772  1  0.09583600  0.91449880  0.56295760  1
  P  P773  1  0.09583600  0.91449880  0.76295760  1
  P  P774  1  0.09583600  0.91449880  0.96295760  1
  P  P775  1  0.29583600  0.11449880  0.16295760  1
  P  P776  1  0.29583600  0.11449880  0.36295760  1
  P  P777  1  0.29583600  0.11449880  0.56295760  1
  P  P778  1  0.29583600  0.11449880  0.76295760  1
  P  P779  1  0.29583600  0.11449880  0.96295760  1
  P  P780  1  0.29583600  0.31449880  0.16295760  1
  P  P781  1  0.29583600  0.31449880  0.36295760  1
  P  P782  1  0.29583600  0.31449880  0.56295760  1
  P  P783  1  0.29583600  0.31449880  0.76295760  1
  P  P784  1  0.29583600  0.31449880  0.96295760  1
  P  P785  1  0.29583600  0.51449880  0.16295760  1
  P  P786  1  0.29583600  0.51449880  0.36295760  1
  P  P787  1  0.29583600  0.51449880  0.56295760  1
  P  P788  1  0.29583600  0.51449880  0.76295760  1
  P  P789  1  0.29583600  0.51449880  0.96295760  1
  P  P790  1  0.29583600  0.71449880  0.16295760  1
  P  P791  1  0.29583600  0.71449880  0.36295760  1
  P  P792  1  0.29583600  0.71449880  0.56295760  1
  P  P793  1  0.29583600  0.71449880  0.76295760  1
  P  P794  1  0.29583600  0.71449880  0.96295760  1
  P  P795  1  0.29583600  0.91449880  0.16295760  1
  P  P796  1  0.29583600  0.91449880  0.36295760  1
  P  P797  1  0.29583600  0.91449880  0.56295760  1
  P  P798  1  0.29583600  0.91449880  0.76295760  1
  P  P799  1  0.29583600  0.91449880  0.96295760  1
  P  P800  1  0.49583600  0.11449880  0.16295760  1
  P  P801  1  0.49583600  0.11449880  0.36295760  1
  P  P802  1  0.49583600  0.11449880  0.56295760  1
  P  P803  1  0.49583600  0.11449880  0.76295760  1
  P  P804  1  0.49583600  0.11449880  0.96295760  1
  P  P805  1  0.49583600  0.31449880  0.16295760  1
  P  P806  1  0.49583600  0.31449880  0.36295760  1
  P  P807  1  0.49583600  0.31449880  0.56295760  1
  P  P808  1  0.49583600  0.31449880  0.76295760  1
  P  P809  1  0.49583600  0.31449880  0.96295760  1
  P  P810  1  0.49583600  0.51449880  0.16295760  1
  P  P811  1  0.49583600  0.51449880  0.36295760  1
  P  P812  1  0.49583600  0.51449880  0.56295760  1
  P  P813  1  0.49583600  0.51449880  0.76295760  1
  P  P814  1  0.49583600  0.51449880  0.96295760  1
  P  P815  1  0.49583600  0.71449880  0.16295760  1
  P  P816  1  0.49583600  0.71449880  0.36295760  1
  P  P817  1  0.49583600  0.71449880  0.56295760  1
  P  P818  1  0.49583600  0.71449880  0.76295760  1
  P  P819  1  0.49583600  0.71449880  0.96295760  1
  P  P820  1  0.49583600  0.91449880  0.16295760  1
  P  P821  1  0.49583600  0.91449880  0.36295760  1
  P  P822  1  0.49583600  0.91449880  0.56295760  1
  P  P823  1  0.49583600  0.91449880  0.76295760  1
  P  P824  1  0.49583600  0.91449880  0.96295760  1
  P  P825  1  0.69583600  0.11449880  0.16295760  1
  P  P826  1  0.69583600  0.11449880  0.36295760  1
  P  P827  1  0.69583600  0.11449880  0.56295760  1
  P  P828  1  0.69583600  0.11449880  0.76295760  1
  P  P829  1  0.69583600  0.11449880  0.96295760  1
  P  P830  1  0.69583600  0.31449880  0.16295760  1
  P  P831  1  0.69583600  0.31449880  0.36295760  1
  P  P832  1  0.69583600  0.31449880  0.56295760  1
  P  P833  1  0.69583600  0.31449880  0.76295760  1
  P  P834  1  0.69583600  0.31449880  0.96295760  1
  P  P835  1  0.69583600  0.51449880  0.16295760  1
  P  P836  1  0.69583600  0.51449880  0.36295760  1
  P  P837  1  0.69583600  0.51449880  0.56295760  1
  P  P838  1  0.69583600  0.51449880  0.76295760  1
  P  P839  1  0.69583600  0.51449880  0.96295760  1
  P  P840  1  0.69583600  0.71449880  0.16295760  1
  P  P841  1  0.69583600  0.71449880  0.36295760  1
  P  P842  1  0.69583600  0.71449880  0.56295760  1
  P  P843  1  0.69583600  0.71449880  0.76295760  1
  P  P844  1  0.69583600  0.71449880  0.96295760  1
  P  P845  1  0.69583600  0.91449880  0.16295760  1
  P  P846  1  0.69583600  0.91449880  0.36295760  1
  P  P847  1  0.69583600  0.91449880  0.56295760  1
  P  P848  1  0.69583600  0.91449880  0.76295760  1
  P  P849  1  0.69583600  0.91449880  0.96295760  1
  P  P850  1  0.89583600  0.11449880  0.16295760  1
  P  P851  1  0.89583600  0.11449880  0.36295760  1
  P  P852  1  0.89583600  0.11449880  0.56295760  1
  P  P853  1  0.89583600  0.11449880  0.76295760  1
  P  P854  1  0.89583600  0.11449880  0.96295760  1
  P  P855  1  0.89583600  0.31449880  0.16295760  1
  P  P856  1  0.89583600  0.31449880  0.36295760  1
  P  P857  1  0.89583600  0.31449880  0.56295760  1
  P  P858  1  0.89583600  0.31449880  0.76295760  1
  P  P859  1  0.89583600  0.31449880  0.96295760  1
  P  P860  1  0.89583600  0.51449880  0.16295760  1
  P  P861  1  0.89583600  0.51449880  0.36295760  1
  P  P862  1  0.89583600  0.51449880  0.56295760  1
  P  P863  1  0.89583600  0.51449880  0.76295760  1
  P  P864  1  0.89583600  0.51449880  0.96295760  1
  P  P865  1  0.89583600  0.71449880  0.16295760  1
  P  P866  1  0.89583600  0.71449880  0.36295760  1
  P  P867  1  0.89583600  0.71449880  0.56295760  1
  P  P868  1  0.89583600  0.71449880  0.76295760  1
  P  P869  1  0.89583600  0.71449880  0.96295760  1
  P  P870  1  0.89583600  0.91449880  0.16295760  1
  P  P871  1  0.89583600  0.91449880  0.36295760  1
  P  P872  1  0.89583600  0.91449880  0.56295760  1
  P  P873  1  0.89583600  0.91449880  0.76295760  1
  P  P874  1  0.89583600  0.91449880  0.96295760  1
  P  P875  1  0.10416400  0.08550120  0.03704240  1
  P  P876  1  0.10416400  0.08550120  0.23704240  1
  P  P877  1  0.10416400  0.08550120  0.43704240  1
  P  P878  1  0.10416400  0.08550120  0.63704240  1
  P  P879  1  0.10416400  0.08550120  0.83704240  1
  P  P880  1  0.10416400  0.28550120  0.03704240  1
  P  P881  1  0.10416400  0.28550120  0.23704240  1
  P  P882  1  0.10416400  0.28550120  0.43704240  1
  P  P883  1  0.10416400  0.28550120  0.63704240  1
  P  P884  1  0.10416400  0.28550120  0.83704240  1
  P  P885  1  0.10416400  0.48550120  0.03704240  1
  P  P886  1  0.10416400  0.48550120  0.23704240  1
  P  P887  1  0.10416400  0.48550120  0.43704240  1
  P  P888  1  0.10416400  0.48550120  0.63704240  1
  P  P889  1  0.10416400  0.48550120  0.83704240  1
  P  P890  1  0.10416400  0.68550120  0.03704240  1
  P  P891  1  0.10416400  0.68550120  0.23704240  1
  P  P892  1  0.10416400  0.68550120  0.43704240  1
  P  P893  1  0.10416400  0.68550120  0.63704240  1
  P  P894  1  0.10416400  0.68550120  0.83704240  1
  P  P895  1  0.10416400  0.88550120  0.03704240  1
  P  P896  1  0.10416400  0.88550120  0.23704240  1
  P  P897  1  0.10416400  0.88550120  0.43704240  1
  P  P898  1  0.10416400  0.88550120  0.63704240  1
  P  P899  1  0.10416400  0.88550120  0.83704240  1
  P  P900  1  0.30416400  0.08550120  0.03704240  1
  P  P901  1  0.30416400  0.08550120  0.23704240  1
  P  P902  1  0.30416400  0.08550120  0.43704240  1
  P  P903  1  0.30416400  0.08550120  0.63704240  1
  P  P904  1  0.30416400  0.08550120  0.83704240  1
  P  P905  1  0.30416400  0.28550120  0.03704240  1
  P  P906  1  0.30416400  0.28550120  0.23704240  1
  P  P907  1  0.30416400  0.28550120  0.43704240  1
  P  P908  1  0.30416400  0.28550120  0.63704240  1
  P  P909  1  0.30416400  0.28550120  0.83704240  1
  P  P910  1  0.30416400  0.48550120  0.03704240  1
  P  P911  1  0.30416400  0.48550120  0.23704240  1
  P  P912  1  0.30416400  0.48550120  0.43704240  1
  P  P913  1  0.30416400  0.48550120  0.63704240  1
  P  P914  1  0.30416400  0.48550120  0.83704240  1
  P  P915  1  0.30416400  0.68550120  0.03704240  1
  P  P916  1  0.30416400  0.68550120  0.23704240  1
  P  P917  1  0.30416400  0.68550120  0.43704240  1
  P  P918  1  0.30416400  0.68550120  0.63704240  1
  P  P919  1  0.30416400  0.68550120  0.83704240  1
  P  P920  1  0.30416400  0.88550120  0.03704240  1
  P  P921  1  0.30416400  0.88550120  0.23704240  1
  P  P922  1  0.30416400  0.88550120  0.43704240  1
  P  P923  1  0.30416400  0.88550120  0.63704240  1
  P  P924  1  0.30416400  0.88550120  0.83704240  1
  P  P925  1  0.50416400  0.08550120  0.03704240  1
  P  P926  1  0.50416400  0.08550120  0.23704240  1
  P  P927  1  0.50416400  0.08550120  0.43704240  1
  P  P928  1  0.50416400  0.08550120  0.63704240  1
  P  P929  1  0.50416400  0.08550120  0.83704240  1
  P  P930  1  0.50416400  0.28550120  0.03704240  1
  P  P931  1  0.50416400  0.28550120  0.23704240  1
  P  P932  1  0.50416400  0.28550120  0.43704240  1
  P  P933  1  0.50416400  0.28550120  0.63704240  1
  P  P934  1  0.50416400  0.28550120  0.83704240  1
  P  P935  1  0.50416400  0.48550120  0.03704240  1
  P  P936  1  0.50416400  0.48550120  0.23704240  1
  P  P937  1  0.50416400  0.48550120  0.43704240  1
  P  P938  1  0.50416400  0.48550120  0.63704240  1
  P  P939  1  0.50416400  0.48550120  0.83704240  1
  P  P940  1  0.50416400  0.68550120  0.03704240  1
  P  P941  1  0.50416400  0.68550120  0.23704240  1
  P  P942  1  0.50416400  0.68550120  0.43704240  1
  P  P943  1  0.50416400  0.68550120  0.63704240  1
  P  P944  1  0.50416400  0.68550120  0.83704240  1
  P  P945  1  0.50416400  0.88550120  0.03704240  1
  P  P946  1  0.50416400  0.88550120  0.23704240  1
  P  P947  1  0.50416400  0.88550120  0.43704240  1
  P  P948  1  0.50416400  0.88550120  0.63704240  1
  P  P949  1  0.50416400  0.88550120  0.83704240  1
  P  P950  1  0.70416400  0.08550120  0.03704240  1
  P  P951  1  0.70416400  0.08550120  0.23704240  1
  P  P952  1  0.70416400  0.08550120  0.43704240  1
  P  P953  1  0.70416400  0.08550120  0.63704240  1
  P  P954  1  0.70416400  0.08550120  0.83704240  1
  P  P955  1  0.70416400  0.28550120  0.03704240  1
  P  P956  1  0.70416400  0.28550120  0.23704240  1
  P  P957  1  0.70416400  0.28550120  0.43704240  1
  P  P958  1  0.70416400  0.28550120  0.63704240  1
  P  P959  1  0.70416400  0.28550120  0.83704240  1
  P  P960  1  0.70416400  0.48550120  0.03704240  1
  P  P961  1  0.70416400  0.48550120  0.23704240  1
  P  P962  1  0.70416400  0.48550120  0.43704240  1
  P  P963  1  0.70416400  0.48550120  0.63704240  1
  P  P964  1  0.70416400  0.48550120  0.83704240  1
  P  P965  1  0.70416400  0.68550120  0.03704240  1
  P  P966  1  0.70416400  0.68550120  0.23704240  1
  P  P967  1  0.70416400  0.68550120  0.43704240  1
  P  P968  1  0.70416400  0.68550120  0.63704240  1
  P  P969  1  0.70416400  0.68550120  0.83704240  1
  P  P970  1  0.70416400  0.88550120  0.03704240  1
  P  P971  1  0.70416400  0.88550120  0.23704240  1
  P  P972  1  0.70416400  0.88550120  0.43704240  1
  P  P973  1  0.70416400  0.88550120  0.63704240  1
  P  P974  1  0.70416400  0.88550120  0.83704240  1
  P  P975  1  0.90416400  0.08550120  0.03704240  1
  P  P976  1  0.90416400  0.08550120  0.23704240  1
  P  P977  1  0.90416400  0.08550120  0.43704240  1
  P  P978  1  0.90416400  0.08550120  0.63704240  1
  P  P979  1  0.90416400  0.08550120  0.83704240  1
  P  P980  1  0.90416400  0.28550120  0.03704240  1
  P  P981  1  0.90416400  0.28550120  0.23704240  1
  P  P982  1  0.90416400  0.28550120  0.43704240  1
  P  P983  1  0.90416400  0.28550120  0.63704240  1
  P  P984  1  0.90416400  0.28550120  0.83704240  1
  P  P985  1  0.90416400  0.48550120  0.03704240  1
  P  P986  1  0.90416400  0.48550120  0.23704240  1
  P  P987  1  0.90416400  0.48550120  0.43704240  1
  P  P988  1  0.90416400  0.48550120  0.63704240  1
  P  P989  1  0.90416400  0.48550120  0.83704240  1
  P  P990  1  0.90416400  0.68550120  0.03704240  1
  P  P991  1  0.90416400  0.68550120  0.23704240  1
  P  P992  1  0.90416400  0.68550120  0.43704240  1
  P  P993  1  0.90416400  0.68550120  0.63704240  1
  P  P994  1  0.90416400  0.68550120  0.83704240  1
  P  P995  1  0.90416400  0.88550120  0.03704240  1
  P  P996  1  0.90416400  0.88550120  0.23704240  1
  P  P997  1  0.90416400  0.88550120  0.43704240  1
  P  P998  1  0.90416400  0.88550120  0.63704240  1
  P  P999  1  0.90416400  0.88550120  0.83704240  1
  P  P1000  1  0.00136660  0.13414760  0.07136160  1
  P  P1001  1  0.00136660  0.13414760  0.27136160  1
  P  P1002  1  0.00136660  0.13414760  0.47136160  1
  P  P1003  1  0.00136660  0.13414760  0.67136160  1
  P  P1004  1  0.00136660  0.13414760  0.87136160  1
  P  P1005  1  0.00136660  0.33414760  0.07136160  1
  P  P1006  1  0.00136660  0.33414760  0.27136160  1
  P  P1007  1  0.00136660  0.33414760  0.47136160  1
  P  P1008  1  0.00136660  0.33414760  0.67136160  1
  P  P1009  1  0.00136660  0.33414760  0.87136160  1
  P  P1010  1  0.00136660  0.53414760  0.07136160  1
  P  P1011  1  0.00136660  0.53414760  0.27136160  1
  P  P1012  1  0.00136660  0.53414760  0.47136160  1
  P  P1013  1  0.00136660  0.53414760  0.67136160  1
  P  P1014  1  0.00136660  0.53414760  0.87136160  1
  P  P1015  1  0.00136660  0.73414760  0.07136160  1
  P  P1016  1  0.00136660  0.73414760  0.27136160  1
  P  P1017  1  0.00136660  0.73414760  0.47136160  1
  P  P1018  1  0.00136660  0.73414760  0.67136160  1
  P  P1019  1  0.00136660  0.73414760  0.87136160  1
  P  P1020  1  0.00136660  0.93414760  0.07136160  1
  P  P1021  1  0.00136660  0.93414760  0.27136160  1
  P  P1022  1  0.00136660  0.93414760  0.47136160  1
  P  P1023  1  0.00136660  0.93414760  0.67136160  1
  P  P1024  1  0.00136660  0.93414760  0.87136160  1
  P  P1025  1  0.20136660  0.13414760  0.07136160  1
  P  P1026  1  0.20136660  0.13414760  0.27136160  1
  P  P1027  1  0.20136660  0.13414760  0.47136160  1
  P  P1028  1  0.20136660  0.13414760  0.67136160  1
  P  P1029  1  0.20136660  0.13414760  0.87136160  1
  P  P1030  1  0.20136660  0.33414760  0.07136160  1
  P  P1031  1  0.20136660  0.33414760  0.27136160  1
  P  P1032  1  0.20136660  0.33414760  0.47136160  1
  P  P1033  1  0.20136660  0.33414760  0.67136160  1
  P  P1034  1  0.20136660  0.33414760  0.87136160  1
  P  P1035  1  0.20136660  0.53414760  0.07136160  1
  P  P1036  1  0.20136660  0.53414760  0.27136160  1
  P  P1037  1  0.20136660  0.53414760  0.47136160  1
  P  P1038  1  0.20136660  0.53414760  0.67136160  1
  P  P1039  1  0.20136660  0.53414760  0.87136160  1
  P  P1040  1  0.20136660  0.73414760  0.07136160  1
  P  P1041  1  0.20136660  0.73414760  0.27136160  1
  P  P1042  1  0.20136660  0.73414760  0.47136160  1
  P  P1043  1  0.20136660  0.73414760  0.67136160  1
  P  P1044  1  0.20136660  0.73414760  0.87136160  1
  P  P1045  1  0.20136660  0.93414760  0.07136160  1
  P  P1046  1  0.20136660  0.93414760  0.27136160  1
  P  P1047  1  0.20136660  0.93414760  0.47136160  1
  P  P1048  1  0.20136660  0.93414760  0.67136160  1
  P  P1049  1  0.20136660  0.93414760  0.87136160  1
  P  P1050  1  0.40136660  0.13414760  0.07136160  1
  P  P1051  1  0.40136660  0.13414760  0.27136160  1
  P  P1052  1  0.40136660  0.13414760  0.47136160  1
  P  P1053  1  0.40136660  0.13414760  0.67136160  1
  P  P1054  1  0.40136660  0.13414760  0.87136160  1
  P  P1055  1  0.40136660  0.33414760  0.07136160  1
  P  P1056  1  0.40136660  0.33414760  0.27136160  1
  P  P1057  1  0.40136660  0.33414760  0.47136160  1
  P  P1058  1  0.40136660  0.33414760  0.67136160  1
  P  P1059  1  0.40136660  0.33414760  0.87136160  1
  P  P1060  1  0.40136660  0.53414760  0.07136160  1
  P  P1061  1  0.40136660  0.53414760  0.27136160  1
  P  P1062  1  0.40136660  0.53414760  0.47136160  1
  P  P1063  1  0.40136660  0.53414760  0.67136160  1
  P  P1064  1  0.40136660  0.53414760  0.87136160  1
  P  P1065  1  0.40136660  0.73414760  0.07136160  1
  P  P1066  1  0.40136660  0.73414760  0.27136160  1
  P  P1067  1  0.40136660  0.73414760  0.47136160  1
  P  P1068  1  0.40136660  0.73414760  0.67136160  1
  P  P1069  1  0.40136660  0.73414760  0.87136160  1
  P  P1070  1  0.40136660  0.93414760  0.07136160  1
  P  P1071  1  0.40136660  0.93414760  0.27136160  1
  P  P1072  1  0.40136660  0.93414760  0.47136160  1
  P  P1073  1  0.40136660  0.93414760  0.67136160  1
  P  P1074  1  0.40136660  0.93414760  0.87136160  1
  P  P1075  1  0.60136660  0.13414760  0.07136160  1
  P  P1076  1  0.60136660  0.13414760  0.27136160  1
  P  P1077  1  0.60136660  0.13414760  0.47136160  1
  P  P1078  1  0.60136660  0.13414760  0.67136160  1
  P  P1079  1  0.60136660  0.13414760  0.87136160  1
  P  P1080  1  0.60136660  0.33414760  0.07136160  1
  P  P1081  1  0.60136660  0.33414760  0.27136160  1
  P  P1082  1  0.60136660  0.33414760  0.47136160  1
  P  P1083  1  0.60136660  0.33414760  0.67136160  1
  P  P1084  1  0.60136660  0.33414760  0.87136160  1
  P  P1085  1  0.60136660  0.53414760  0.07136160  1
  P  P1086  1  0.60136660  0.53414760  0.27136160  1
  P  P1087  1  0.60136660  0.53414760  0.47136160  1
  P  P1088  1  0.60136660  0.53414760  0.67136160  1
  P  P1089  1  0.60136660  0.53414760  0.87136160  1
  P  P1090  1  0.60136660  0.73414760  0.07136160  1
  P  P1091  1  0.60136660  0.73414760  0.27136160  1
  P  P1092  1  0.60136660  0.73414760  0.47136160  1
  P  P1093  1  0.60136660  0.73414760  0.67136160  1
  P  P1094  1  0.60136660  0.73414760  0.87136160  1
  P  P1095  1  0.60136660  0.93414760  0.07136160  1
  P  P1096  1  0.60136660  0.93414760  0.27136160  1
  P  P1097  1  0.60136660  0.93414760  0.47136160  1
  P  P1098  1  0.60136660  0.93414760  0.67136160  1
  P  P1099  1  0.60136660  0.93414760  0.87136160  1
  P  P1100  1  0.80136660  0.13414760  0.07136160  1
  P  P1101  1  0.80136660  0.13414760  0.27136160  1
  P  P1102  1  0.80136660  0.13414760  0.47136160  1
  P  P1103  1  0.80136660  0.13414760  0.67136160  1
  P  P1104  1  0.80136660  0.13414760  0.87136160  1
  P  P1105  1  0.80136660  0.33414760  0.07136160  1
  P  P1106  1  0.80136660  0.33414760  0.27136160  1
  P  P1107  1  0.80136660  0.33414760  0.47136160  1
  P  P1108  1  0.80136660  0.33414760  0.67136160  1
  P  P1109  1  0.80136660  0.33414760  0.87136160  1
  P  P1110  1  0.80136660  0.53414760  0.07136160  1
  P  P1111  1  0.80136660  0.53414760  0.27136160  1
  P  P1112  1  0.80136660  0.53414760  0.47136160  1
  P  P1113  1  0.80136660  0.53414760  0.67136160  1
  P  P1114  1  0.80136660  0.53414760  0.87136160  1
  P  P1115  1  0.80136660  0.73414760  0.07136160  1
  P  P1116  1  0.80136660  0.73414760  0.27136160  1
  P  P1117  1  0.80136660  0.73414760  0.47136160  1
  P  P1118  1  0.80136660  0.73414760  0.67136160  1
  P  P1119  1  0.80136660  0.73414760  0.87136160  1
  P  P1120  1  0.80136660  0.93414760  0.07136160  1
  P  P1121  1  0.80136660  0.93414760  0.27136160  1
  P  P1122  1  0.80136660  0.93414760  0.47136160  1
  P  P1123  1  0.80136660  0.93414760  0.67136160  1
  P  P1124  1  0.80136660  0.93414760  0.87136160  1
  O  O1125  1  0.06443780  0.04475740  0.04261320  1
  O  O1126  1  0.06443780  0.04475740  0.24261320  1
  O  O1127  1  0.06443780  0.04475740  0.44261320  1
  O  O1128  1  0.06443780  0.04475740  0.64261320  1
  O  O1129  1  0.06443780  0.04475740  0.84261320  1
  O  O1130  1  0.06443780  0.24475740  0.04261320  1
  O  O1131  1  0.06443780  0.24475740  0.24261320  1
  O  O1132  1  0.06443780  0.24475740  0.44261320  1
  O  O1133  1  0.06443780  0.24475740  0.64261320  1
  O  O1134  1  0.06443780  0.24475740  0.84261320  1
  O  O1135  1  0.06443780  0.44475740  0.04261320  1
  O  O1136  1  0.06443780  0.44475740  0.24261320  1
  O  O1137  1  0.06443780  0.44475740  0.44261320  1
  O  O1138  1  0.06443780  0.44475740  0.64261320  1
  O  O1139  1  0.06443780  0.44475740  0.84261320  1
  O  O1140  1  0.06443780  0.64475740  0.04261320  1
  O  O1141  1  0.06443780  0.64475740  0.24261320  1
  O  O1142  1  0.06443780  0.64475740  0.44261320  1
  O  O1143  1  0.06443780  0.64475740  0.64261320  1
  O  O1144  1  0.06443780  0.64475740  0.84261320  1
  O  O1145  1  0.06443780  0.84475740  0.04261320  1
  O  O1146  1  0.06443780  0.84475740  0.24261320  1
  O  O1147  1  0.06443780  0.84475740  0.44261320  1
  O  O1148  1  0.06443780  0.84475740  0.64261320  1
  O  O1149  1  0.06443780  0.84475740  0.84261320  1
  O  O1150  1  0.26443780  0.04475740  0.04261320  1
  O  O1151  1  0.26443780  0.04475740  0.24261320  1
  O  O1152  1  0.26443780  0.04475740  0.44261320  1
  O  O1153  1  0.26443780  0.04475740  0.64261320  1
  O  O1154  1  0.26443780  0.04475740  0.84261320  1
  O  O1155  1  0.26443780  0.24475740  0.04261320  1
  O  O1156  1  0.26443780  0.24475740  0.24261320  1
  O  O1157  1  0.26443780  0.24475740  0.44261320  1
  O  O1158  1  0.26443780  0.24475740  0.64261320  1
  O  O1159  1  0.26443780  0.24475740  0.84261320  1
  O  O1160  1  0.26443780  0.44475740  0.04261320  1
  O  O1161  1  0.26443780  0.44475740  0.24261320  1
  O  O1162  1  0.26443780  0.44475740  0.44261320  1
  O  O1163  1  0.26443780  0.44475740  0.64261320  1
  O  O1164  1  0.26443780  0.44475740  0.84261320  1
  O  O1165  1  0.26443780  0.64475740  0.04261320  1
  O  O1166  1  0.26443780  0.64475740  0.24261320  1
  O  O1167  1  0.26443780  0.64475740  0.44261320  1
  O  O1168  1  0.26443780  0.64475740  0.64261320  1
  O  O1169  1  0.26443780  0.64475740  0.84261320  1
  O  O1170  1  0.26443780  0.84475740  0.04261320  1
  O  O1171  1  0.26443780  0.84475740  0.24261320  1
  O  O1172  1  0.26443780  0.84475740  0.44261320  1
  O  O1173  1  0.26443780  0.84475740  0.64261320  1
  O  O1174  1  0.26443780  0.84475740  0.84261320  1
  O  O1175  1  0.46443780  0.04475740  0.04261320  1
  O  O1176  1  0.46443780  0.04475740  0.24261320  1
  O  O1177  1  0.46443780  0.04475740  0.44261320  1
  O  O1178  1  0.46443780  0.04475740  0.64261320  1
  O  O1179  1  0.46443780  0.04475740  0.84261320  1
  O  O1180  1  0.46443780  0.24475740  0.04261320  1
  O  O1181  1  0.46443780  0.24475740  0.24261320  1
  O  O1182  1  0.46443780  0.24475740  0.44261320  1
  O  O1183  1  0.46443780  0.24475740  0.64261320  1
  O  O1184  1  0.46443780  0.24475740  0.84261320  1
  O  O1185  1  0.46443780  0.44475740  0.04261320  1
  O  O1186  1  0.46443780  0.44475740  0.24261320  1
  O  O1187  1  0.46443780  0.44475740  0.44261320  1
  O  O1188  1  0.46443780  0.44475740  0.64261320  1
  O  O1189  1  0.46443780  0.44475740  0.84261320  1
  O  O1190  1  0.46443780  0.64475740  0.04261320  1
  O  O1191  1  0.46443780  0.64475740  0.24261320  1
  O  O1192  1  0.46443780  0.64475740  0.44261320  1
  O  O1193  1  0.46443780  0.64475740  0.64261320  1
  O  O1194  1  0.46443780  0.64475740  0.84261320  1
  O  O1195  1  0.46443780  0.84475740  0.04261320  1
  O  O1196  1  0.46443780  0.84475740  0.24261320  1
  O  O1197  1  0.46443780  0.84475740  0.44261320  1
  O  O1198  1  0.46443780  0.84475740  0.64261320  1
  O  O1199  1  0.46443780  0.84475740  0.84261320  1
  O  O1200  1  0.66443780  0.04475740  0.04261320  1
  O  O1201  1  0.66443780  0.04475740  0.24261320  1
  O  O1202  1  0.66443780  0.04475740  0.44261320  1
  O  O1203  1  0.66443780  0.04475740  0.64261320  1
  O  O1204  1  0.66443780  0.04475740  0.84261320  1
  O  O1205  1  0.66443780  0.24475740  0.04261320  1
  O  O1206  1  0.66443780  0.24475740  0.24261320  1
  O  O1207  1  0.66443780  0.24475740  0.44261320  1
  O  O1208  1  0.66443780  0.24475740  0.64261320  1
  O  O1209  1  0.66443780  0.24475740  0.84261320  1
  O  O1210  1  0.66443780  0.44475740  0.04261320  1
  O  O1211  1  0.66443780  0.44475740  0.24261320  1
  O  O1212  1  0.66443780  0.44475740  0.44261320  1
  O  O1213  1  0.66443780  0.44475740  0.64261320  1
  O  O1214  1  0.66443780  0.44475740  0.84261320  1
  O  O1215  1  0.66443780  0.64475740  0.04261320  1
  O  O1216  1  0.66443780  0.64475740  0.24261320  1
  O  O1217  1  0.66443780  0.64475740  0.44261320  1
  O  O1218  1  0.66443780  0.64475740  0.64261320  1
  O  O1219  1  0.66443780  0.64475740  0.84261320  1
  O  O1220  1  0.66443780  0.84475740  0.04261320  1
  O  O1221  1  0.66443780  0.84475740  0.24261320  1
  O  O1222  1  0.66443780  0.84475740  0.44261320  1
  O  O1223  1  0.66443780  0.84475740  0.64261320  1
  O  O1224  1  0.66443780  0.84475740  0.84261320  1
  O  O1225  1  0.86443780  0.04475740  0.04261320  1
  O  O1226  1  0.86443780  0.04475740  0.24261320  1
  O  O1227  1  0.86443780  0.04475740  0.44261320  1
  O  O1228  1  0.86443780  0.04475740  0.64261320  1
  O  O1229  1  0.86443780  0.04475740  0.84261320  1
  O  O1230  1  0.86443780  0.24475740  0.04261320  1
  O  O1231  1  0.86443780  0.24475740  0.24261320  1
  O  O1232  1  0.86443780  0.24475740  0.44261320  1
  O  O1233  1  0.86443780  0.24475740  0.64261320  1
  O  O1234  1  0.86443780  0.24475740  0.84261320  1
  O  O1235  1  0.86443780  0.44475740  0.04261320  1
  O  O1236  1  0.86443780  0.44475740  0.24261320  1
  O  O1237  1  0.86443780  0.44475740  0.44261320  1
  O  O1238  1  0.86443780  0.44475740  0.64261320  1
  O  O1239  1  0.86443780  0.44475740  0.84261320  1
  O  O1240  1  0.86443780  0.64475740  0.04261320  1
  O  O1241  1  0.86443780  0.64475740  0.24261320  1
  O  O1242  1  0.86443780  0.64475740  0.44261320  1
  O  O1243  1  0.86443780  0.64475740  0.64261320  1
  O  O1244  1  0.86443780  0.64475740  0.84261320  1
  O  O1245  1  0.86443780  0.84475740  0.04261320  1
  O  O1246  1  0.86443780  0.84475740  0.24261320  1
  O  O1247  1  0.86443780  0.84475740  0.44261320  1
  O  O1248  1  0.86443780  0.84475740  0.64261320  1
  O  O1249  1  0.86443780  0.84475740  0.84261320  1
  O  O1250  1  0.19827520  0.03795640  0.10806360  1
  O  O1251  1  0.19827520  0.03795640  0.30806360  1
  O  O1252  1  0.19827520  0.03795640  0.50806360  1
  O  O1253  1  0.19827520  0.03795640  0.70806360  1
  O  O1254  1  0.19827520  0.03795640  0.90806360  1
  O  O1255  1  0.19827520  0.23795640  0.10806360  1
  O  O1256  1  0.19827520  0.23795640  0.30806360  1
  O  O1257  1  0.19827520  0.23795640  0.50806360  1
  O  O1258  1  0.19827520  0.23795640  0.70806360  1
  O  O1259  1  0.19827520  0.23795640  0.90806360  1
  O  O1260  1  0.19827520  0.43795640  0.10806360  1
  O  O1261  1  0.19827520  0.43795640  0.30806360  1
  O  O1262  1  0.19827520  0.43795640  0.50806360  1
  O  O1263  1  0.19827520  0.43795640  0.70806360  1
  O  O1264  1  0.19827520  0.43795640  0.90806360  1
  O  O1265  1  0.19827520  0.63795640  0.10806360  1
  O  O1266  1  0.19827520  0.63795640  0.30806360  1
  O  O1267  1  0.19827520  0.63795640  0.50806360  1
  O  O1268  1  0.19827520  0.63795640  0.70806360  1
  O  O1269  1  0.19827520  0.63795640  0.90806360  1
  O  O1270  1  0.19827520  0.83795640  0.10806360  1
  O  O1271  1  0.19827520  0.83795640  0.30806360  1
  O  O1272  1  0.19827520  0.83795640  0.50806360  1
  O  O1273  1  0.19827520  0.83795640  0.70806360  1
  O  O1274  1  0.19827520  0.83795640  0.90806360  1
  O  O1275  1  0.39827520  0.03795640  0.10806360  1
  O  O1276  1  0.39827520  0.03795640  0.30806360  1
  O  O1277  1  0.39827520  0.03795640  0.50806360  1
  O  O1278  1  0.39827520  0.03795640  0.70806360  1
  O  O1279  1  0.39827520  0.03795640  0.90806360  1
  O  O1280  1  0.39827520  0.23795640  0.10806360  1
  O  O1281  1  0.39827520  0.23795640  0.30806360  1
  O  O1282  1  0.39827520  0.23795640  0.50806360  1
  O  O1283  1  0.39827520  0.23795640  0.70806360  1
  O  O1284  1  0.39827520  0.23795640  0.90806360  1
  O  O1285  1  0.39827520  0.43795640  0.10806360  1
  O  O1286  1  0.39827520  0.43795640  0.30806360  1
  O  O1287  1  0.39827520  0.43795640  0.50806360  1
  O  O1288  1  0.39827520  0.43795640  0.70806360  1
  O  O1289  1  0.39827520  0.43795640  0.90806360  1
  O  O1290  1  0.39827520  0.63795640  0.10806360  1
  O  O1291  1  0.39827520  0.63795640  0.30806360  1
  O  O1292  1  0.39827520  0.63795640  0.50806360  1
  O  O1293  1  0.39827520  0.63795640  0.70806360  1
  O  O1294  1  0.39827520  0.63795640  0.90806360  1
  O  O1295  1  0.39827520  0.83795640  0.10806360  1
  O  O1296  1  0.39827520  0.83795640  0.30806360  1
  O  O1297  1  0.39827520  0.83795640  0.50806360  1
  O  O1298  1  0.39827520  0.83795640  0.70806360  1
  O  O1299  1  0.39827520  0.83795640  0.90806360  1
  O  O1300  1  0.59827520  0.03795640  0.10806360  1
  O  O1301  1  0.59827520  0.03795640  0.30806360  1
  O  O1302  1  0.59827520  0.03795640  0.50806360  1
  O  O1303  1  0.59827520  0.03795640  0.70806360  1
  O  O1304  1  0.59827520  0.03795640  0.90806360  1
  O  O1305  1  0.59827520  0.23795640  0.10806360  1
  O  O1306  1  0.59827520  0.23795640  0.30806360  1
  O  O1307  1  0.59827520  0.23795640  0.50806360  1
  O  O1308  1  0.59827520  0.23795640  0.70806360  1
  O  O1309  1  0.59827520  0.23795640  0.90806360  1
  O  O1310  1  0.59827520  0.43795640  0.10806360  1
  O  O1311  1  0.59827520  0.43795640  0.30806360  1
  O  O1312  1  0.59827520  0.43795640  0.50806360  1
  O  O1313  1  0.59827520  0.43795640  0.70806360  1
  O  O1314  1  0.59827520  0.43795640  0.90806360  1
  O  O1315  1  0.59827520  0.63795640  0.10806360  1
  O  O1316  1  0.59827520  0.63795640  0.30806360  1
  O  O1317  1  0.59827520  0.63795640  0.50806360  1
  O  O1318  1  0.59827520  0.63795640  0.70806360  1
  O  O1319  1  0.59827520  0.63795640  0.90806360  1
  O  O1320  1  0.59827520  0.83795640  0.10806360  1
  O  O1321  1  0.59827520  0.83795640  0.30806360  1
  O  O1322  1  0.59827520  0.83795640  0.50806360  1
  O  O1323  1  0.59827520  0.83795640  0.70806360  1
  O  O1324  1  0.59827520  0.83795640  0.90806360  1
  O  O1325  1  0.79827520  0.03795640  0.10806360  1
  O  O1326  1  0.79827520  0.03795640  0.30806360  1
  O  O1327  1  0.79827520  0.03795640  0.50806360  1
  O  O1328  1  0.79827520  0.03795640  0.70806360  1
  O  O1329  1  0.79827520  0.03795640  0.90806360  1
  O  O1330  1  0.79827520  0.23795640  0.10806360  1
  O  O1331  1  0.79827520  0.23795640  0.30806360  1
  O  O1332  1  0.79827520  0.23795640  0.50806360  1
  O  O1333  1  0.79827520  0.23795640  0.70806360  1
  O  O1334  1  0.79827520  0.23795640  0.90806360  1
  O  O1335  1  0.79827520  0.43795640  0.10806360  1
  O  O1336  1  0.79827520  0.43795640  0.30806360  1
  O  O1337  1  0.79827520  0.43795640  0.50806360  1
  O  O1338  1  0.79827520  0.43795640  0.70806360  1
  O  O1339  1  0.79827520  0.43795640  0.90806360  1
  O  O1340  1  0.79827520  0.63795640  0.10806360  1
  O  O1341  1  0.79827520  0.63795640  0.30806360  1
  O  O1342  1  0.79827520  0.63795640  0.50806360  1
  O  O1343  1  0.79827520  0.63795640  0.70806360  1
  O  O1344  1  0.79827520  0.63795640  0.90806360  1
  O  O1345  1  0.79827520  0.83795640  0.10806360  1
  O  O1346  1  0.79827520  0.83795640  0.30806360  1
  O  O1347  1  0.79827520  0.83795640  0.50806360  1
  O  O1348  1  0.79827520  0.83795640  0.70806360  1
  O  O1349  1  0.79827520  0.83795640  0.90806360  1
  O  O1350  1  0.99827520  0.03795640  0.10806360  1
  O  O1351  1  0.99827520  0.03795640  0.30806360  1
  O  O1352  1  0.99827520  0.03795640  0.50806360  1
  O  O1353  1  0.99827520  0.03795640  0.70806360  1
  O  O1354  1  0.99827520  0.03795640  0.90806360  1
  O  O1355  1  0.99827520  0.23795640  0.10806360  1
  O  O1356  1  0.99827520  0.23795640  0.30806360  1
  O  O1357  1  0.99827520  0.23795640  0.50806360  1
  O  O1358  1  0.99827520  0.23795640  0.70806360  1
  O  O1359  1  0.99827520  0.23795640  0.90806360  1
  O  O1360  1  0.99827520  0.43795640  0.10806360  1
  O  O1361  1  0.99827520  0.43795640  0.30806360  1
  O  O1362  1  0.99827520  0.43795640  0.50806360  1
  O  O1363  1  0.99827520  0.43795640  0.70806360  1
  O  O1364  1  0.99827520  0.43795640  0.90806360  1
  O  O1365  1  0.99827520  0.63795640  0.10806360  1
  O  O1366  1  0.99827520  0.63795640  0.30806360  1
  O  O1367  1  0.99827520  0.63795640  0.50806360  1
  O  O1368  1  0.99827520  0.63795640  0.70806360  1
  O  O1369  1  0.99827520  0.63795640  0.90806360  1
  O  O1370  1  0.99827520  0.83795640  0.10806360  1
  O  O1371  1  0.99827520  0.83795640  0.30806360  1
  O  O1372  1  0.99827520  0.83795640  0.50806360  1
  O  O1373  1  0.99827520  0.83795640  0.70806360  1
  O  O1374  1  0.99827520  0.83795640  0.90806360  1
  O  O1375  1  0.18833540  0.04448000  0.19111560  1
  O  O1376  1  0.18833540  0.04448000  0.39111560  1
  O  O1377  1  0.18833540  0.04448000  0.59111560  1
  O  O1378  1  0.18833540  0.04448000  0.79111560  1
  O  O1379  1  0.18833540  0.04448000  0.99111560  1
  O  O1380  1  0.18833540  0.24448000  0.19111560  1
  O  O1381  1  0.18833540  0.24448000  0.39111560  1
  O  O1382  1  0.18833540  0.24448000  0.59111560  1
  O  O1383  1  0.18833540  0.24448000  0.79111560  1
  O  O1384  1  0.18833540  0.24448000  0.99111560  1
  O  O1385  1  0.18833540  0.44448000  0.19111560  1
  O  O1386  1  0.18833540  0.44448000  0.39111560  1
  O  O1387  1  0.18833540  0.44448000  0.59111560  1
  O  O1388  1  0.18833540  0.44448000  0.79111560  1
  O  O1389  1  0.18833540  0.44448000  0.99111560  1
  O  O1390  1  0.18833540  0.64448000  0.19111560  1
  O  O1391  1  0.18833540  0.64448000  0.39111560  1
  O  O1392  1  0.18833540  0.64448000  0.59111560  1
  O  O1393  1  0.18833540  0.64448000  0.79111560  1
  O  O1394  1  0.18833540  0.64448000  0.99111560  1
  O  O1395  1  0.18833540  0.84448000  0.19111560  1
  O  O1396  1  0.18833540  0.84448000  0.39111560  1
  O  O1397  1  0.18833540  0.84448000  0.59111560  1
  O  O1398  1  0.18833540  0.84448000  0.79111560  1
  O  O1399  1  0.18833540  0.84448000  0.99111560  1
  O  O1400  1  0.38833540  0.04448000  0.19111560  1
  O  O1401  1  0.38833540  0.04448000  0.39111560  1
  O  O1402  1  0.38833540  0.04448000  0.59111560  1
  O  O1403  1  0.38833540  0.04448000  0.79111560  1
  O  O1404  1  0.38833540  0.04448000  0.99111560  1
  O  O1405  1  0.38833540  0.24448000  0.19111560  1
  O  O1406  1  0.38833540  0.24448000  0.39111560  1
  O  O1407  1  0.38833540  0.24448000  0.59111560  1
  O  O1408  1  0.38833540  0.24448000  0.79111560  1
  O  O1409  1  0.38833540  0.24448000  0.99111560  1
  O  O1410  1  0.38833540  0.44448000  0.19111560  1
  O  O1411  1  0.38833540  0.44448000  0.39111560  1
  O  O1412  1  0.38833540  0.44448000  0.59111560  1
  O  O1413  1  0.38833540  0.44448000  0.79111560  1
  O  O1414  1  0.38833540  0.44448000  0.99111560  1
  O  O1415  1  0.38833540  0.64448000  0.19111560  1
  O  O1416  1  0.38833540  0.64448000  0.39111560  1
  O  O1417  1  0.38833540  0.64448000  0.59111560  1
  O  O1418  1  0.38833540  0.64448000  0.79111560  1
  O  O1419  1  0.38833540  0.64448000  0.99111560  1
  O  O1420  1  0.38833540  0.84448000  0.19111560  1
  O  O1421  1  0.38833540  0.84448000  0.39111560  1
  O  O1422  1  0.38833540  0.84448000  0.59111560  1
  O  O1423  1  0.38833540  0.84448000  0.79111560  1
  O  O1424  1  0.38833540  0.84448000  0.99111560  1
  O  O1425  1  0.58833540  0.04448000  0.19111560  1
  O  O1426  1  0.58833540  0.04448000  0.39111560  1
  O  O1427  1  0.58833540  0.04448000  0.59111560  1
  O  O1428  1  0.58833540  0.04448000  0.79111560  1
  O  O1429  1  0.58833540  0.04448000  0.99111560  1
  O  O1430  1  0.58833540  0.24448000  0.19111560  1
  O  O1431  1  0.58833540  0.24448000  0.39111560  1
  O  O1432  1  0.58833540  0.24448000  0.59111560  1
  O  O1433  1  0.58833540  0.24448000  0.79111560  1
  O  O1434  1  0.58833540  0.24448000  0.99111560  1
  O  O1435  1  0.58833540  0.44448000  0.19111560  1
  O  O1436  1  0.58833540  0.44448000  0.39111560  1
  O  O1437  1  0.58833540  0.44448000  0.59111560  1
  O  O1438  1  0.58833540  0.44448000  0.79111560  1
  O  O1439  1  0.58833540  0.44448000  0.99111560  1
  O  O1440  1  0.58833540  0.64448000  0.19111560  1
  O  O1441  1  0.58833540  0.64448000  0.39111560  1
  O  O1442  1  0.58833540  0.64448000  0.59111560  1
  O  O1443  1  0.58833540  0.64448000  0.79111560  1
  O  O1444  1  0.58833540  0.64448000  0.99111560  1
  O  O1445  1  0.58833540  0.84448000  0.19111560  1
  O  O1446  1  0.58833540  0.84448000  0.39111560  1
  O  O1447  1  0.58833540  0.84448000  0.59111560  1
  O  O1448  1  0.58833540  0.84448000  0.79111560  1
  O  O1449  1  0.58833540  0.84448000  0.99111560  1
  O  O1450  1  0.78833540  0.04448000  0.19111560  1
  O  O1451  1  0.78833540  0.04448000  0.39111560  1
  O  O1452  1  0.78833540  0.04448000  0.59111560  1
  O  O1453  1  0.78833540  0.04448000  0.79111560  1
  O  O1454  1  0.78833540  0.04448000  0.99111560  1
  O  O1455  1  0.78833540  0.24448000  0.19111560  1
  O  O1456  1  0.78833540  0.24448000  0.39111560  1
  O  O1457  1  0.78833540  0.24448000  0.59111560  1
  O  O1458  1  0.78833540  0.24448000  0.79111560  1
  O  O1459  1  0.78833540  0.24448000  0.99111560  1
  O  O1460  1  0.78833540  0.44448000  0.19111560  1
  O  O1461  1  0.78833540  0.44448000  0.39111560  1
  O  O1462  1  0.78833540  0.44448000  0.59111560  1
  O  O1463  1  0.78833540  0.44448000  0.79111560  1
  O  O1464  1  0.78833540  0.44448000  0.99111560  1
  O  O1465  1  0.78833540  0.64448000  0.19111560  1
  O  O1466  1  0.78833540  0.64448000  0.39111560  1
  O  O1467  1  0.78833540  0.64448000  0.59111560  1
  O  O1468  1  0.78833540  0.64448000  0.79111560  1
  O  O1469  1  0.78833540  0.64448000  0.99111560  1
  O  O1470  1  0.78833540  0.84448000  0.19111560  1
  O  O1471  1  0.78833540  0.84448000  0.39111560  1
  O  O1472  1  0.78833540  0.84448000  0.59111560  1
  O  O1473  1  0.78833540  0.84448000  0.79111560  1
  O  O1474  1  0.78833540  0.84448000  0.99111560  1
  O  O1475  1  0.98833540  0.04448000  0.19111560  1
  O  O1476  1  0.98833540  0.04448000  0.39111560  1
  O  O1477  1  0.98833540  0.04448000  0.59111560  1
  O  O1478  1  0.98833540  0.04448000  0.79111560  1
  O  O1479  1  0.98833540  0.04448000  0.99111560  1
  O  O1480  1  0.98833540  0.24448000  0.19111560  1
  O  O1481  1  0.98833540  0.24448000  0.39111560  1
  O  O1482  1  0.98833540  0.24448000  0.59111560  1
  O  O1483  1  0.98833540  0.24448000  0.79111560  1
  O  O1484  1  0.98833540  0.24448000  0.99111560  1
  O  O1485  1  0.98833540  0.44448000  0.19111560  1
  O  O1486  1  0.98833540  0.44448000  0.39111560  1
  O  O1487  1  0.98833540  0.44448000  0.59111560  1
  O  O1488  1  0.98833540  0.44448000  0.79111560  1
  O  O1489  1  0.98833540  0.44448000  0.99111560  1
  O  O1490  1  0.98833540  0.64448000  0.19111560  1
  O  O1491  1  0.98833540  0.64448000  0.39111560  1
  O  O1492  1  0.98833540  0.64448000  0.59111560  1
  O  O1493  1  0.98833540  0.64448000  0.79111560  1
  O  O1494  1  0.98833540  0.64448000  0.99111560  1
  O  O1495  1  0.98833540  0.84448000  0.19111560  1
  O  O1496  1  0.98833540  0.84448000  0.39111560  1
  O  O1497  1  0.98833540  0.84448000  0.59111560  1
  O  O1498  1  0.98833540  0.84448000  0.79111560  1
  O  O1499  1  0.98833540  0.84448000  0.99111560  1
  O  O1500  1  0.15512600  0.01059920  0.05767260  1
  O  O1501  1  0.15512600  0.01059920  0.25767260  1
  O  O1502  1  0.15512600  0.01059920  0.45767260  1
  O  O1503  1  0.15512600  0.01059920  0.65767260  1
  O  O1504  1  0.15512600  0.01059920  0.85767260  1
  O  O1505  1  0.15512600  0.21059920  0.05767260  1
  O  O1506  1  0.15512600  0.21059920  0.25767260  1
  O  O1507  1  0.15512600  0.21059920  0.45767260  1
  O  O1508  1  0.15512600  0.21059920  0.65767260  1
  O  O1509  1  0.15512600  0.21059920  0.85767260  1
  O  O1510  1  0.15512600  0.41059920  0.05767260  1
  O  O1511  1  0.15512600  0.41059920  0.25767260  1
  O  O1512  1  0.15512600  0.41059920  0.45767260  1
  O  O1513  1  0.15512600  0.41059920  0.65767260  1
  O  O1514  1  0.15512600  0.41059920  0.85767260  1
  O  O1515  1  0.15512600  0.61059920  0.05767260  1
  O  O1516  1  0.15512600  0.61059920  0.25767260  1
  O  O1517  1  0.15512600  0.61059920  0.45767260  1
  O  O1518  1  0.15512600  0.61059920  0.65767260  1
  O  O1519  1  0.15512600  0.61059920  0.85767260  1
  O  O1520  1  0.15512600  0.81059920  0.05767260  1
  O  O1521  1  0.15512600  0.81059920  0.25767260  1
  O  O1522  1  0.15512600  0.81059920  0.45767260  1
  O  O1523  1  0.15512600  0.81059920  0.65767260  1
  O  O1524  1  0.15512600  0.81059920  0.85767260  1
  O  O1525  1  0.35512600  0.01059920  0.05767260  1
  O  O1526  1  0.35512600  0.01059920  0.25767260  1
  O  O1527  1  0.35512600  0.01059920  0.45767260  1
  O  O1528  1  0.35512600  0.01059920  0.65767260  1
  O  O1529  1  0.35512600  0.01059920  0.85767260  1
  O  O1530  1  0.35512600  0.21059920  0.05767260  1
  O  O1531  1  0.35512600  0.21059920  0.25767260  1
  O  O1532  1  0.35512600  0.21059920  0.45767260  1
  O  O1533  1  0.35512600  0.21059920  0.65767260  1
  O  O1534  1  0.35512600  0.21059920  0.85767260  1
  O  O1535  1  0.35512600  0.41059920  0.05767260  1
  O  O1536  1  0.35512600  0.41059920  0.25767260  1
  O  O1537  1  0.35512600  0.41059920  0.45767260  1
  O  O1538  1  0.35512600  0.41059920  0.65767260  1
  O  O1539  1  0.35512600  0.41059920  0.85767260  1
  O  O1540  1  0.35512600  0.61059920  0.05767260  1
  O  O1541  1  0.35512600  0.61059920  0.25767260  1
  O  O1542  1  0.35512600  0.61059920  0.45767260  1
  O  O1543  1  0.35512600  0.61059920  0.65767260  1
  O  O1544  1  0.35512600  0.61059920  0.85767260  1
  O  O1545  1  0.35512600  0.81059920  0.05767260  1
  O  O1546  1  0.35512600  0.81059920  0.25767260  1
  O  O1547  1  0.35512600  0.81059920  0.45767260  1
  O  O1548  1  0.35512600  0.81059920  0.65767260  1
  O  O1549  1  0.35512600  0.81059920  0.85767260  1
  O  O1550  1  0.55512600  0.01059920  0.05767260  1
  O  O1551  1  0.55512600  0.01059920  0.25767260  1
  O  O1552  1  0.55512600  0.01059920  0.45767260  1
  O  O1553  1  0.55512600  0.01059920  0.65767260  1
  O  O1554  1  0.55512600  0.01059920  0.85767260  1
  O  O1555  1  0.55512600  0.21059920  0.05767260  1
  O  O1556  1  0.55512600  0.21059920  0.25767260  1
  O  O1557  1  0.55512600  0.21059920  0.45767260  1
  O  O1558  1  0.55512600  0.21059920  0.65767260  1
  O  O1559  1  0.55512600  0.21059920  0.85767260  1
  O  O1560  1  0.55512600  0.41059920  0.05767260  1
  O  O1561  1  0.55512600  0.41059920  0.25767260  1
  O  O1562  1  0.55512600  0.41059920  0.45767260  1
  O  O1563  1  0.55512600  0.41059920  0.65767260  1
  O  O1564  1  0.55512600  0.41059920  0.85767260  1
  O  O1565  1  0.55512600  0.61059920  0.05767260  1
  O  O1566  1  0.55512600  0.61059920  0.25767260  1
  O  O1567  1  0.55512600  0.61059920  0.45767260  1
  O  O1568  1  0.55512600  0.61059920  0.65767260  1
  O  O1569  1  0.55512600  0.61059920  0.85767260  1
  O  O1570  1  0.55512600  0.81059920  0.05767260  1
  O  O1571  1  0.55512600  0.81059920  0.25767260  1
  O  O1572  1  0.55512600  0.81059920  0.45767260  1
  O  O1573  1  0.55512600  0.81059920  0.65767260  1
  O  O1574  1  0.55512600  0.81059920  0.85767260  1
  O  O1575  1  0.75512600  0.01059920  0.05767260  1
  O  O1576  1  0.75512600  0.01059920  0.25767260  1
  O  O1577  1  0.75512600  0.01059920  0.45767260  1
  O  O1578  1  0.75512600  0.01059920  0.65767260  1
  O  O1579  1  0.75512600  0.01059920  0.85767260  1
  O  O1580  1  0.75512600  0.21059920  0.05767260  1
  O  O1581  1  0.75512600  0.21059920  0.25767260  1
  O  O1582  1  0.75512600  0.21059920  0.45767260  1
  O  O1583  1  0.75512600  0.21059920  0.65767260  1
  O  O1584  1  0.75512600  0.21059920  0.85767260  1
  O  O1585  1  0.75512600  0.41059920  0.05767260  1
  O  O1586  1  0.75512600  0.41059920  0.25767260  1
  O  O1587  1  0.75512600  0.41059920  0.45767260  1
  O  O1588  1  0.75512600  0.41059920  0.65767260  1
  O  O1589  1  0.75512600  0.41059920  0.85767260  1
  O  O1590  1  0.75512600  0.61059920  0.05767260  1
  O  O1591  1  0.75512600  0.61059920  0.25767260  1
  O  O1592  1  0.75512600  0.61059920  0.45767260  1
  O  O1593  1  0.75512600  0.61059920  0.65767260  1
  O  O1594  1  0.75512600  0.61059920  0.85767260  1
  O  O1595  1  0.75512600  0.81059920  0.05767260  1
  O  O1596  1  0.75512600  0.81059920  0.25767260  1
  O  O1597  1  0.75512600  0.81059920  0.45767260  1
  O  O1598  1  0.75512600  0.81059920  0.65767260  1
  O  O1599  1  0.75512600  0.81059920  0.85767260  1
  O  O1600  1  0.95512600  0.01059920  0.05767260  1
  O  O1601  1  0.95512600  0.01059920  0.25767260  1
  O  O1602  1  0.95512600  0.01059920  0.45767260  1
  O  O1603  1  0.95512600  0.01059920  0.65767260  1
  O  O1604  1  0.95512600  0.01059920  0.85767260  1
  O  O1605  1  0.95512600  0.21059920  0.05767260  1
  O  O1606  1  0.95512600  0.21059920  0.25767260  1
  O  O1607  1  0.95512600  0.21059920  0.45767260  1
  O  O1608  1  0.95512600  0.21059920  0.65767260  1
  O  O1609  1  0.95512600  0.21059920  0.85767260  1
  O  O1610  1  0.95512600  0.41059920  0.05767260  1
  O  O1611  1  0.95512600  0.41059920  0.25767260  1
  O  O1612  1  0.95512600  0.41059920  0.45767260  1
  O  O1613  1  0.95512600  0.41059920  0.65767260  1
  O  O1614  1  0.95512600  0.41059920  0.85767260  1
  O  O1615  1  0.95512600  0.61059920  0.05767260  1
  O  O1616  1  0.95512600  0.61059920  0.25767260  1
  O  O1617  1  0.95512600  0.61059920  0.45767260  1
  O  O1618  1  0.95512600  0.61059920  0.65767260  1
  O  O1619  1  0.95512600  0.61059920  0.85767260  1
  O  O1620  1  0.95512600  0.81059920  0.05767260  1
  O  O1621  1  0.95512600  0.81059920  0.25767260  1
  O  O1622  1  0.95512600  0.81059920  0.45767260  1
  O  O1623  1  0.95512600  0.81059920  0.65767260  1
  O  O1624  1  0.95512600  0.81059920  0.85767260  1
  O  O1625  1  0.14256360  0.07694300  0.02359780  1
  O  O1626  1  0.14256360  0.07694300  0.22359780  1
  O  O1627  1  0.14256360  0.07694300  0.42359780  1
  O  O1628  1  0.14256360  0.07694300  0.62359780  1
  O  O1629  1  0.14256360  0.07694300  0.82359780  1
  O  O1630  1  0.14256360  0.27694300  0.02359780  1
  O  O1631  1  0.14256360  0.27694300  0.22359780  1
  O  O1632  1  0.14256360  0.27694300  0.42359780  1
  O  O1633  1  0.14256360  0.27694300  0.62359780  1
  O  O1634  1  0.14256360  0.27694300  0.82359780  1
  O  O1635  1  0.14256360  0.47694300  0.02359780  1
  O  O1636  1  0.14256360  0.47694300  0.22359780  1
  O  O1637  1  0.14256360  0.47694300  0.42359780  1
  O  O1638  1  0.14256360  0.47694300  0.62359780  1
  O  O1639  1  0.14256360  0.47694300  0.82359780  1
  O  O1640  1  0.14256360  0.67694300  0.02359780  1
  O  O1641  1  0.14256360  0.67694300  0.22359780  1
  O  O1642  1  0.14256360  0.67694300  0.42359780  1
  O  O1643  1  0.14256360  0.67694300  0.62359780  1
  O  O1644  1  0.14256360  0.67694300  0.82359780  1
  O  O1645  1  0.14256360  0.87694300  0.02359780  1
  O  O1646  1  0.14256360  0.87694300  0.22359780  1
  O  O1647  1  0.14256360  0.87694300  0.42359780  1
  O  O1648  1  0.14256360  0.87694300  0.62359780  1
  O  O1649  1  0.14256360  0.87694300  0.82359780  1
  O  O1650  1  0.34256360  0.07694300  0.02359780  1
  O  O1651  1  0.34256360  0.07694300  0.22359780  1
  O  O1652  1  0.34256360  0.07694300  0.42359780  1
  O  O1653  1  0.34256360  0.07694300  0.62359780  1
  O  O1654  1  0.34256360  0.07694300  0.82359780  1
  O  O1655  1  0.34256360  0.27694300  0.02359780  1
  O  O1656  1  0.34256360  0.27694300  0.22359780  1
  O  O1657  1  0.34256360  0.27694300  0.42359780  1
  O  O1658  1  0.34256360  0.27694300  0.62359780  1
  O  O1659  1  0.34256360  0.27694300  0.82359780  1
  O  O1660  1  0.34256360  0.47694300  0.02359780  1
  O  O1661  1  0.34256360  0.47694300  0.22359780  1
  O  O1662  1  0.34256360  0.47694300  0.42359780  1
  O  O1663  1  0.34256360  0.47694300  0.62359780  1
  O  O1664  1  0.34256360  0.47694300  0.82359780  1
  O  O1665  1  0.34256360  0.67694300  0.02359780  1
  O  O1666  1  0.34256360  0.67694300  0.22359780  1
  O  O1667  1  0.34256360  0.67694300  0.42359780  1
  O  O1668  1  0.34256360  0.67694300  0.62359780  1
  O  O1669  1  0.34256360  0.67694300  0.82359780  1
  O  O1670  1  0.34256360  0.87694300  0.02359780  1
  O  O1671  1  0.34256360  0.87694300  0.22359780  1
  O  O1672  1  0.34256360  0.87694300  0.42359780  1
  O  O1673  1  0.34256360  0.87694300  0.62359780  1
  O  O1674  1  0.34256360  0.87694300  0.82359780  1
  O  O1675  1  0.54256360  0.07694300  0.02359780  1
  O  O1676  1  0.54256360  0.07694300  0.22359780  1
  O  O1677  1  0.54256360  0.07694300  0.42359780  1
  O  O1678  1  0.54256360  0.07694300  0.62359780  1
  O  O1679  1  0.54256360  0.07694300  0.82359780  1
  O  O1680  1  0.54256360  0.27694300  0.02359780  1
  O  O1681  1  0.54256360  0.27694300  0.22359780  1
  O  O1682  1  0.54256360  0.27694300  0.42359780  1
  O  O1683  1  0.54256360  0.27694300  0.62359780  1
  O  O1684  1  0.54256360  0.27694300  0.82359780  1
  O  O1685  1  0.54256360  0.47694300  0.02359780  1
  O  O1686  1  0.54256360  0.47694300  0.22359780  1
  O  O1687  1  0.54256360  0.47694300  0.42359780  1
  O  O1688  1  0.54256360  0.47694300  0.62359780  1
  O  O1689  1  0.54256360  0.47694300  0.82359780  1
  O  O1690  1  0.54256360  0.67694300  0.02359780  1
  O  O1691  1  0.54256360  0.67694300  0.22359780  1
  O  O1692  1  0.54256360  0.67694300  0.42359780  1
  O  O1693  1  0.54256360  0.67694300  0.62359780  1
  O  O1694  1  0.54256360  0.67694300  0.82359780  1
  O  O1695  1  0.54256360  0.87694300  0.02359780  1
  O  O1696  1  0.54256360  0.87694300  0.22359780  1
  O  O1697  1  0.54256360  0.87694300  0.42359780  1
  O  O1698  1  0.54256360  0.87694300  0.62359780  1
  O  O1699  1  0.54256360  0.87694300  0.82359780  1
  O  O1700  1  0.74256360  0.07694300  0.02359780  1
  O  O1701  1  0.74256360  0.07694300  0.22359780  1
  O  O1702  1  0.74256360  0.07694300  0.42359780  1
  O  O1703  1  0.74256360  0.07694300  0.62359780  1
  O  O1704  1  0.74256360  0.07694300  0.82359780  1
  O  O1705  1  0.74256360  0.27694300  0.02359780  1
  O  O1706  1  0.74256360  0.27694300  0.22359780  1
  O  O1707  1  0.74256360  0.27694300  0.42359780  1
  O  O1708  1  0.74256360  0.27694300  0.62359780  1
  O  O1709  1  0.74256360  0.27694300  0.82359780  1
  O  O1710  1  0.74256360  0.47694300  0.02359780  1
  O  O1711  1  0.74256360  0.47694300  0.22359780  1
  O  O1712  1  0.74256360  0.47694300  0.42359780  1
  O  O1713  1  0.74256360  0.47694300  0.62359780  1
  O  O1714  1  0.74256360  0.47694300  0.82359780  1
  O  O1715  1  0.74256360  0.67694300  0.02359780  1
  O  O1716  1  0.74256360  0.67694300  0.22359780  1
  O  O1717  1  0.74256360  0.67694300  0.42359780  1
  O  O1718  1  0.74256360  0.67694300  0.62359780  1
  O  O1719  1  0.74256360  0.67694300  0.82359780  1
  O  O1720  1  0.74256360  0.87694300  0.02359780  1
  O  O1721  1  0.74256360  0.87694300  0.22359780  1
  O  O1722  1  0.74256360  0.87694300  0.42359780  1
  O  O1723  1  0.74256360  0.87694300  0.62359780  1
  O  O1724  1  0.74256360  0.87694300  0.82359780  1
  O  O1725  1  0.94256360  0.07694300  0.02359780  1
  O  O1726  1  0.94256360  0.07694300  0.22359780  1
  O  O1727  1  0.94256360  0.07694300  0.42359780  1
  O  O1728  1  0.94256360  0.07694300  0.62359780  1
  O  O1729  1  0.94256360  0.07694300  0.82359780  1
  O  O1730  1  0.94256360  0.27694300  0.02359780  1
  O  O1731  1  0.94256360  0.27694300  0.22359780  1
  O  O1732  1  0.94256360  0.27694300  0.42359780  1
  O  O1733  1  0.94256360  0.27694300  0.62359780  1
  O  O1734  1  0.94256360  0.27694300  0.82359780  1
  O  O1735  1  0.94256360  0.47694300  0.02359780  1
  O  O1736  1  0.94256360  0.47694300  0.22359780  1
  O  O1737  1  0.94256360  0.47694300  0.42359780  1
  O  O1738  1  0.94256360  0.47694300  0.62359780  1
  O  O1739  1  0.94256360  0.47694300  0.82359780  1
  O  O1740  1  0.94256360  0.67694300  0.02359780  1
  O  O1741  1  0.94256360  0.67694300  0.22359780  1
  O  O1742  1  0.94256360  0.67694300  0.42359780  1
  O  O1743  1  0.94256360  0.67694300  0.62359780  1
  O  O1744  1  0.94256360  0.67694300  0.82359780  1
  O  O1745  1  0.94256360  0.87694300  0.02359780  1
  O  O1746  1  0.94256360  0.87694300  0.22359780  1
  O  O1747  1  0.94256360  0.87694300  0.42359780  1
  O  O1748  1  0.94256360  0.87694300  0.62359780  1
  O  O1749  1  0.94256360  0.87694300  0.82359780  1
  O  O1750  1  0.09094960  0.04908880  0.08900980  1
  O  O1751  1  0.09094960  0.04908880  0.28900980  1
  O  O1752  1  0.09094960  0.04908880  0.48900980  1
  O  O1753  1  0.09094960  0.04908880  0.68900980  1
  O  O1754  1  0.09094960  0.04908880  0.88900980  1
  O  O1755  1  0.09094960  0.24908880  0.08900980  1
  O  O1756  1  0.09094960  0.24908880  0.28900980  1
  O  O1757  1  0.09094960  0.24908880  0.48900980  1
  O  O1758  1  0.09094960  0.24908880  0.68900980  1
  O  O1759  1  0.09094960  0.24908880  0.88900980  1
  O  O1760  1  0.09094960  0.44908880  0.08900980  1
  O  O1761  1  0.09094960  0.44908880  0.28900980  1
  O  O1762  1  0.09094960  0.44908880  0.48900980  1
  O  O1763  1  0.09094960  0.44908880  0.68900980  1
  O  O1764  1  0.09094960  0.44908880  0.88900980  1
  O  O1765  1  0.09094960  0.64908880  0.08900980  1
  O  O1766  1  0.09094960  0.64908880  0.28900980  1
  O  O1767  1  0.09094960  0.64908880  0.48900980  1
  O  O1768  1  0.09094960  0.64908880  0.68900980  1
  O  O1769  1  0.09094960  0.64908880  0.88900980  1
  O  O1770  1  0.09094960  0.84908880  0.08900980  1
  O  O1771  1  0.09094960  0.84908880  0.28900980  1
  O  O1772  1  0.09094960  0.84908880  0.48900980  1
  O  O1773  1  0.09094960  0.84908880  0.68900980  1
  O  O1774  1  0.09094960  0.84908880  0.88900980  1
  O  O1775  1  0.29094960  0.04908880  0.08900980  1
  O  O1776  1  0.29094960  0.04908880  0.28900980  1
  O  O1777  1  0.29094960  0.04908880  0.48900980  1
  O  O1778  1  0.29094960  0.04908880  0.68900980  1
  O  O1779  1  0.29094960  0.04908880  0.88900980  1
  O  O1780  1  0.29094960  0.24908880  0.08900980  1
  O  O1781  1  0.29094960  0.24908880  0.28900980  1
  O  O1782  1  0.29094960  0.24908880  0.48900980  1
  O  O1783  1  0.29094960  0.24908880  0.68900980  1
  O  O1784  1  0.29094960  0.24908880  0.88900980  1
  O  O1785  1  0.29094960  0.44908880  0.08900980  1
  O  O1786  1  0.29094960  0.44908880  0.28900980  1
  O  O1787  1  0.29094960  0.44908880  0.48900980  1
  O  O1788  1  0.29094960  0.44908880  0.68900980  1
  O  O1789  1  0.29094960  0.44908880  0.88900980  1
  O  O1790  1  0.29094960  0.64908880  0.08900980  1
  O  O1791  1  0.29094960  0.64908880  0.28900980  1
  O  O1792  1  0.29094960  0.64908880  0.48900980  1
  O  O1793  1  0.29094960  0.64908880  0.68900980  1
  O  O1794  1  0.29094960  0.64908880  0.88900980  1
  O  O1795  1  0.29094960  0.84908880  0.08900980  1
  O  O1796  1  0.29094960  0.84908880  0.28900980  1
  O  O1797  1  0.29094960  0.84908880  0.48900980  1
  O  O1798  1  0.29094960  0.84908880  0.68900980  1
  O  O1799  1  0.29094960  0.84908880  0.88900980  1
  O  O1800  1  0.49094960  0.04908880  0.08900980  1
  O  O1801  1  0.49094960  0.04908880  0.28900980  1
  O  O1802  1  0.49094960  0.04908880  0.48900980  1
  O  O1803  1  0.49094960  0.04908880  0.68900980  1
  O  O1804  1  0.49094960  0.04908880  0.88900980  1
  O  O1805  1  0.49094960  0.24908880  0.08900980  1
  O  O1806  1  0.49094960  0.24908880  0.28900980  1
  O  O1807  1  0.49094960  0.24908880  0.48900980  1
  O  O1808  1  0.49094960  0.24908880  0.68900980  1
  O  O1809  1  0.49094960  0.24908880  0.88900980  1
  O  O1810  1  0.49094960  0.44908880  0.08900980  1
  O  O1811  1  0.49094960  0.44908880  0.28900980  1
  O  O1812  1  0.49094960  0.44908880  0.48900980  1
  O  O1813  1  0.49094960  0.44908880  0.68900980  1
  O  O1814  1  0.49094960  0.44908880  0.88900980  1
  O  O1815  1  0.49094960  0.64908880  0.08900980  1
  O  O1816  1  0.49094960  0.64908880  0.28900980  1
  O  O1817  1  0.49094960  0.64908880  0.48900980  1
  O  O1818  1  0.49094960  0.64908880  0.68900980  1
  O  O1819  1  0.49094960  0.64908880  0.88900980  1
  O  O1820  1  0.49094960  0.84908880  0.08900980  1
  O  O1821  1  0.49094960  0.84908880  0.28900980  1
  O  O1822  1  0.49094960  0.84908880  0.48900980  1
  O  O1823  1  0.49094960  0.84908880  0.68900980  1
  O  O1824  1  0.49094960  0.84908880  0.88900980  1
  O  O1825  1  0.69094960  0.04908880  0.08900980  1
  O  O1826  1  0.69094960  0.04908880  0.28900980  1
  O  O1827  1  0.69094960  0.04908880  0.48900980  1
  O  O1828  1  0.69094960  0.04908880  0.68900980  1
  O  O1829  1  0.69094960  0.04908880  0.88900980  1
  O  O1830  1  0.69094960  0.24908880  0.08900980  1
  O  O1831  1  0.69094960  0.24908880  0.28900980  1
  O  O1832  1  0.69094960  0.24908880  0.48900980  1
  O  O1833  1  0.69094960  0.24908880  0.68900980  1
  O  O1834  1  0.69094960  0.24908880  0.88900980  1
  O  O1835  1  0.69094960  0.44908880  0.08900980  1
  O  O1836  1  0.69094960  0.44908880  0.28900980  1
  O  O1837  1  0.69094960  0.44908880  0.48900980  1
  O  O1838  1  0.69094960  0.44908880  0.68900980  1
  O  O1839  1  0.69094960  0.44908880  0.88900980  1
  O  O1840  1  0.69094960  0.64908880  0.08900980  1
  O  O1841  1  0.69094960  0.64908880  0.28900980  1
  O  O1842  1  0.69094960  0.64908880  0.48900980  1
  O  O1843  1  0.69094960  0.64908880  0.68900980  1
  O  O1844  1  0.69094960  0.64908880  0.88900980  1
  O  O1845  1  0.69094960  0.84908880  0.08900980  1
  O  O1846  1  0.69094960  0.84908880  0.28900980  1
  O  O1847  1  0.69094960  0.84908880  0.48900980  1
  O  O1848  1  0.69094960  0.84908880  0.68900980  1
  O  O1849  1  0.69094960  0.84908880  0.88900980  1
  O  O1850  1  0.89094960  0.04908880  0.08900980  1
  O  O1851  1  0.89094960  0.04908880  0.28900980  1
  O  O1852  1  0.89094960  0.04908880  0.48900980  1
  O  O1853  1  0.89094960  0.04908880  0.68900980  1
  O  O1854  1  0.89094960  0.04908880  0.88900980  1
  O  O1855  1  0.89094960  0.24908880  0.08900980  1
  O  O1856  1  0.89094960  0.24908880  0.28900980  1
  O  O1857  1  0.89094960  0.24908880  0.48900980  1
  O  O1858  1  0.89094960  0.24908880  0.68900980  1
  O  O1859  1  0.89094960  0.24908880  0.88900980  1
  O  O1860  1  0.89094960  0.44908880  0.08900980  1
  O  O1861  1  0.89094960  0.44908880  0.28900980  1
  O  O1862  1  0.89094960  0.44908880  0.48900980  1
  O  O1863  1  0.89094960  0.44908880  0.68900980  1
  O  O1864  1  0.89094960  0.44908880  0.88900980  1
  O  O1865  1  0.89094960  0.64908880  0.08900980  1
  O  O1866  1  0.89094960  0.64908880  0.28900980  1
  O  O1867  1  0.89094960  0.64908880  0.48900980  1
  O  O1868  1  0.89094960  0.64908880  0.68900980  1
  O  O1869  1  0.89094960  0.64908880  0.88900980  1
  O  O1870  1  0.89094960  0.84908880  0.08900980  1
  O  O1871  1  0.89094960  0.84908880  0.28900980  1
  O  O1872  1  0.89094960  0.84908880  0.48900980  1
  O  O1873  1  0.89094960  0.84908880  0.68900980  1
  O  O1874  1  0.89094960  0.84908880  0.88900980  1
  O  O1875  1  0.07503060  0.11305840  0.02659620  1
  O  O1876  1  0.07503060  0.11305840  0.22659620  1
  O  O1877  1  0.07503060  0.11305840  0.42659620  1
  O  O1878  1  0.07503060  0.11305840  0.62659620  1
  O  O1879  1  0.07503060  0.11305840  0.82659620  1
  O  O1880  1  0.07503060  0.31305840  0.02659620  1
  O  O1881  1  0.07503060  0.31305840  0.22659620  1
  O  O1882  1  0.07503060  0.31305840  0.42659620  1
  O  O1883  1  0.07503060  0.31305840  0.62659620  1
  O  O1884  1  0.07503060  0.31305840  0.82659620  1
  O  O1885  1  0.07503060  0.51305840  0.02659620  1
  O  O1886  1  0.07503060  0.51305840  0.22659620  1
  O  O1887  1  0.07503060  0.51305840  0.42659620  1
  O  O1888  1  0.07503060  0.51305840  0.62659620  1
  O  O1889  1  0.07503060  0.51305840  0.82659620  1
  O  O1890  1  0.07503060  0.71305840  0.02659620  1
  O  O1891  1  0.07503060  0.71305840  0.22659620  1
  O  O1892  1  0.07503060  0.71305840  0.42659620  1
  O  O1893  1  0.07503060  0.71305840  0.62659620  1
  O  O1894  1  0.07503060  0.71305840  0.82659620  1
  O  O1895  1  0.07503060  0.91305840  0.02659620  1
  O  O1896  1  0.07503060  0.91305840  0.22659620  1
  O  O1897  1  0.07503060  0.91305840  0.42659620  1
  O  O1898  1  0.07503060  0.91305840  0.62659620  1
  O  O1899  1  0.07503060  0.91305840  0.82659620  1
  O  O1900  1  0.27503060  0.11305840  0.02659620  1
  O  O1901  1  0.27503060  0.11305840  0.22659620  1
  O  O1902  1  0.27503060  0.11305840  0.42659620  1
  O  O1903  1  0.27503060  0.11305840  0.62659620  1
  O  O1904  1  0.27503060  0.11305840  0.82659620  1
  O  O1905  1  0.27503060  0.31305840  0.02659620  1
  O  O1906  1  0.27503060  0.31305840  0.22659620  1
  O  O1907  1  0.27503060  0.31305840  0.42659620  1
  O  O1908  1  0.27503060  0.31305840  0.62659620  1
  O  O1909  1  0.27503060  0.31305840  0.82659620  1
  O  O1910  1  0.27503060  0.51305840  0.02659620  1
  O  O1911  1  0.27503060  0.51305840  0.22659620  1
  O  O1912  1  0.27503060  0.51305840  0.42659620  1
  O  O1913  1  0.27503060  0.51305840  0.62659620  1
  O  O1914  1  0.27503060  0.51305840  0.82659620  1
  O  O1915  1  0.27503060  0.71305840  0.02659620  1
  O  O1916  1  0.27503060  0.71305840  0.22659620  1
  O  O1917  1  0.27503060  0.71305840  0.42659620  1
  O  O1918  1  0.27503060  0.71305840  0.62659620  1
  O  O1919  1  0.27503060  0.71305840  0.82659620  1
  O  O1920  1  0.27503060  0.91305840  0.02659620  1
  O  O1921  1  0.27503060  0.91305840  0.22659620  1
  O  O1922  1  0.27503060  0.91305840  0.42659620  1
  O  O1923  1  0.27503060  0.91305840  0.62659620  1
  O  O1924  1  0.27503060  0.91305840  0.82659620  1
  O  O1925  1  0.47503060  0.11305840  0.02659620  1
  O  O1926  1  0.47503060  0.11305840  0.22659620  1
  O  O1927  1  0.47503060  0.11305840  0.42659620  1
  O  O1928  1  0.47503060  0.11305840  0.62659620  1
  O  O1929  1  0.47503060  0.11305840  0.82659620  1
  O  O1930  1  0.47503060  0.31305840  0.02659620  1
  O  O1931  1  0.47503060  0.31305840  0.22659620  1
  O  O1932  1  0.47503060  0.31305840  0.42659620  1
  O  O1933  1  0.47503060  0.31305840  0.62659620  1
  O  O1934  1  0.47503060  0.31305840  0.82659620  1
  O  O1935  1  0.47503060  0.51305840  0.02659620  1
  O  O1936  1  0.47503060  0.51305840  0.22659620  1
  O  O1937  1  0.47503060  0.51305840  0.42659620  1
  O  O1938  1  0.47503060  0.51305840  0.62659620  1
  O  O1939  1  0.47503060  0.51305840  0.82659620  1
  O  O1940  1  0.47503060  0.71305840  0.02659620  1
  O  O1941  1  0.47503060  0.71305840  0.22659620  1
  O  O1942  1  0.47503060  0.71305840  0.42659620  1
  O  O1943  1  0.47503060  0.71305840  0.62659620  1
  O  O1944  1  0.47503060  0.71305840  0.82659620  1
  O  O1945  1  0.47503060  0.91305840  0.02659620  1
  O  O1946  1  0.47503060  0.91305840  0.22659620  1
  O  O1947  1  0.47503060  0.91305840  0.42659620  1
  O  O1948  1  0.47503060  0.91305840  0.62659620  1
  O  O1949  1  0.47503060  0.91305840  0.82659620  1
  O  O1950  1  0.67503060  0.11305840  0.02659620  1
  O  O1951  1  0.67503060  0.11305840  0.22659620  1
  O  O1952  1  0.67503060  0.11305840  0.42659620  1
  O  O1953  1  0.67503060  0.11305840  0.62659620  1
  O  O1954  1  0.67503060  0.11305840  0.82659620  1
  O  O1955  1  0.67503060  0.31305840  0.02659620  1
  O  O1956  1  0.67503060  0.31305840  0.22659620  1
  O  O1957  1  0.67503060  0.31305840  0.42659620  1
  O  O1958  1  0.67503060  0.31305840  0.62659620  1
  O  O1959  1  0.67503060  0.31305840  0.82659620  1
  O  O1960  1  0.67503060  0.51305840  0.02659620  1
  O  O1961  1  0.67503060  0.51305840  0.22659620  1
  O  O1962  1  0.67503060  0.51305840  0.42659620  1
  O  O1963  1  0.67503060  0.51305840  0.62659620  1
  O  O1964  1  0.67503060  0.51305840  0.82659620  1
  O  O1965  1  0.67503060  0.71305840  0.02659620  1
  O  O1966  1  0.67503060  0.71305840  0.22659620  1
  O  O1967  1  0.67503060  0.71305840  0.42659620  1
  O  O1968  1  0.67503060  0.71305840  0.62659620  1
  O  O1969  1  0.67503060  0.71305840  0.82659620  1
  O  O1970  1  0.67503060  0.91305840  0.02659620  1
  O  O1971  1  0.67503060  0.91305840  0.22659620  1
  O  O1972  1  0.67503060  0.91305840  0.42659620  1
  O  O1973  1  0.67503060  0.91305840  0.62659620  1
  O  O1974  1  0.67503060  0.91305840  0.82659620  1
  O  O1975  1  0.87503060  0.11305840  0.02659620  1
  O  O1976  1  0.87503060  0.11305840  0.22659620  1
  O  O1977  1  0.87503060  0.11305840  0.42659620  1
  O  O1978  1  0.87503060  0.11305840  0.62659620  1
  O  O1979  1  0.87503060  0.11305840  0.82659620  1
  O  O1980  1  0.87503060  0.31305840  0.02659620  1
  O  O1981  1  0.87503060  0.31305840  0.22659620  1
  O  O1982  1  0.87503060  0.31305840  0.42659620  1
  O  O1983  1  0.87503060  0.31305840  0.62659620  1
  O  O1984  1  0.87503060  0.31305840  0.82659620  1
  O  O1985  1  0.87503060  0.51305840  0.02659620  1
  O  O1986  1  0.87503060  0.51305840  0.22659620  1
  O  O1987  1  0.87503060  0.51305840  0.42659620  1
  O  O1988  1  0.87503060  0.51305840  0.62659620  1
  O  O1989  1  0.87503060  0.51305840  0.82659620  1
  O  O1990  1  0.87503060  0.71305840  0.02659620  1
  O  O1991  1  0.87503060  0.71305840  0.22659620  1
  O  O1992  1  0.87503060  0.71305840  0.42659620  1
  O  O1993  1  0.87503060  0.71305840  0.62659620  1
  O  O1994  1  0.87503060  0.71305840  0.82659620  1
  O  O1995  1  0.87503060  0.91305840  0.02659620  1
  O  O1996  1  0.87503060  0.91305840  0.22659620  1
  O  O1997  1  0.87503060  0.91305840  0.42659620  1
  O  O1998  1  0.87503060  0.91305840  0.62659620  1
  O  O1999  1  0.87503060  0.91305840  0.82659620  1
  O  O2000  1  0.12496940  0.08694160  0.17340380  1
  O  O2001  1  0.12496940  0.08694160  0.37340380  1
  O  O2002  1  0.12496940  0.08694160  0.57340380  1
  O  O2003  1  0.12496940  0.08694160  0.77340380  1
  O  O2004  1  0.12496940  0.08694160  0.97340380  1
  O  O2005  1  0.12496940  0.28694160  0.17340380  1
  O  O2006  1  0.12496940  0.28694160  0.37340380  1
  O  O2007  1  0.12496940  0.28694160  0.57340380  1
  O  O2008  1  0.12496940  0.28694160  0.77340380  1
  O  O2009  1  0.12496940  0.28694160  0.97340380  1
  O  O2010  1  0.12496940  0.48694160  0.17340380  1
  O  O2011  1  0.12496940  0.48694160  0.37340380  1
  O  O2012  1  0.12496940  0.48694160  0.57340380  1
  O  O2013  1  0.12496940  0.48694160  0.77340380  1
  O  O2014  1  0.12496940  0.48694160  0.97340380  1
  O  O2015  1  0.12496940  0.68694160  0.17340380  1
  O  O2016  1  0.12496940  0.68694160  0.37340380  1
  O  O2017  1  0.12496940  0.68694160  0.57340380  1
  O  O2018  1  0.12496940  0.68694160  0.77340380  1
  O  O2019  1  0.12496940  0.68694160  0.97340380  1
  O  O2020  1  0.12496940  0.88694160  0.17340380  1
  O  O2021  1  0.12496940  0.88694160  0.37340380  1
  O  O2022  1  0.12496940  0.88694160  0.57340380  1
  O  O2023  1  0.12496940  0.88694160  0.77340380  1
  O  O2024  1  0.12496940  0.88694160  0.97340380  1
  O  O2025  1  0.32496940  0.08694160  0.17340380  1
  O  O2026  1  0.32496940  0.08694160  0.37340380  1
  O  O2027  1  0.32496940  0.08694160  0.57340380  1
  O  O2028  1  0.32496940  0.08694160  0.77340380  1
  O  O2029  1  0.32496940  0.08694160  0.97340380  1
  O  O2030  1  0.32496940  0.28694160  0.17340380  1
  O  O2031  1  0.32496940  0.28694160  0.37340380  1
  O  O2032  1  0.32496940  0.28694160  0.57340380  1
  O  O2033  1  0.32496940  0.28694160  0.77340380  1
  O  O2034  1  0.32496940  0.28694160  0.97340380  1
  O  O2035  1  0.32496940  0.48694160  0.17340380  1
  O  O2036  1  0.32496940  0.48694160  0.37340380  1
  O  O2037  1  0.32496940  0.48694160  0.57340380  1
  O  O2038  1  0.32496940  0.48694160  0.77340380  1
  O  O2039  1  0.32496940  0.48694160  0.97340380  1
  O  O2040  1  0.32496940  0.68694160  0.17340380  1
  O  O2041  1  0.32496940  0.68694160  0.37340380  1
  O  O2042  1  0.32496940  0.68694160  0.57340380  1
  O  O2043  1  0.32496940  0.68694160  0.77340380  1
  O  O2044  1  0.32496940  0.68694160  0.97340380  1
  O  O2045  1  0.32496940  0.88694160  0.17340380  1
  O  O2046  1  0.32496940  0.88694160  0.37340380  1
  O  O2047  1  0.32496940  0.88694160  0.57340380  1
  O  O2048  1  0.32496940  0.88694160  0.77340380  1
  O  O2049  1  0.32496940  0.88694160  0.97340380  1
  O  O2050  1  0.52496940  0.08694160  0.17340380  1
  O  O2051  1  0.52496940  0.08694160  0.37340380  1
  O  O2052  1  0.52496940  0.08694160  0.57340380  1
  O  O2053  1  0.52496940  0.08694160  0.77340380  1
  O  O2054  1  0.52496940  0.08694160  0.97340380  1
  O  O2055  1  0.52496940  0.28694160  0.17340380  1
  O  O2056  1  0.52496940  0.28694160  0.37340380  1
  O  O2057  1  0.52496940  0.28694160  0.57340380  1
  O  O2058  1  0.52496940  0.28694160  0.77340380  1
  O  O2059  1  0.52496940  0.28694160  0.97340380  1
  O  O2060  1  0.52496940  0.48694160  0.17340380  1
  O  O2061  1  0.52496940  0.48694160  0.37340380  1
  O  O2062  1  0.52496940  0.48694160  0.57340380  1
  O  O2063  1  0.52496940  0.48694160  0.77340380  1
  O  O2064  1  0.52496940  0.48694160  0.97340380  1
  O  O2065  1  0.52496940  0.68694160  0.17340380  1
  O  O2066  1  0.52496940  0.68694160  0.37340380  1
  O  O2067  1  0.52496940  0.68694160  0.57340380  1
  O  O2068  1  0.52496940  0.68694160  0.77340380  1
  O  O2069  1  0.52496940  0.68694160  0.97340380  1
  O  O2070  1  0.52496940  0.88694160  0.17340380  1
  O  O2071  1  0.52496940  0.88694160  0.37340380  1
  O  O2072  1  0.52496940  0.88694160  0.57340380  1
  O  O2073  1  0.52496940  0.88694160  0.77340380  1
  O  O2074  1  0.52496940  0.88694160  0.97340380  1
  O  O2075  1  0.72496940  0.08694160  0.17340380  1
  O  O2076  1  0.72496940  0.08694160  0.37340380  1
  O  O2077  1  0.72496940  0.08694160  0.57340380  1
  O  O2078  1  0.72496940  0.08694160  0.77340380  1
  O  O2079  1  0.72496940  0.08694160  0.97340380  1
  O  O2080  1  0.72496940  0.28694160  0.17340380  1
  O  O2081  1  0.72496940  0.28694160  0.37340380  1
  O  O2082  1  0.72496940  0.28694160  0.57340380  1
  O  O2083  1  0.72496940  0.28694160  0.77340380  1
  O  O2084  1  0.72496940  0.28694160  0.97340380  1
  O  O2085  1  0.72496940  0.48694160  0.17340380  1
  O  O2086  1  0.72496940  0.48694160  0.37340380  1
  O  O2087  1  0.72496940  0.48694160  0.57340380  1
  O  O2088  1  0.72496940  0.48694160  0.77340380  1
  O  O2089  1  0.72496940  0.48694160  0.97340380  1
  O  O2090  1  0.72496940  0.68694160  0.17340380  1
  O  O2091  1  0.72496940  0.68694160  0.37340380  1
  O  O2092  1  0.72496940  0.68694160  0.57340380  1
  O  O2093  1  0.72496940  0.68694160  0.77340380  1
  O  O2094  1  0.72496940  0.68694160  0.97340380  1
  O  O2095  1  0.72496940  0.88694160  0.17340380  1
  O  O2096  1  0.72496940  0.88694160  0.37340380  1
  O  O2097  1  0.72496940  0.88694160  0.57340380  1
  O  O2098  1  0.72496940  0.88694160  0.77340380  1
  O  O2099  1  0.72496940  0.88694160  0.97340380  1
  O  O2100  1  0.92496940  0.08694160  0.17340380  1
  O  O2101  1  0.92496940  0.08694160  0.37340380  1
  O  O2102  1  0.92496940  0.08694160  0.57340380  1
  O  O2103  1  0.92496940  0.08694160  0.77340380  1
  O  O2104  1  0.92496940  0.08694160  0.97340380  1
  O  O2105  1  0.92496940  0.28694160  0.17340380  1
  O  O2106  1  0.92496940  0.28694160  0.37340380  1
  O  O2107  1  0.92496940  0.28694160  0.57340380  1
  O  O2108  1  0.92496940  0.28694160  0.77340380  1
  O  O2109  1  0.92496940  0.28694160  0.97340380  1
  O  O2110  1  0.92496940  0.48694160  0.17340380  1
  O  O2111  1  0.92496940  0.48694160  0.37340380  1
  O  O2112  1  0.92496940  0.48694160  0.57340380  1
  O  O2113  1  0.92496940  0.48694160  0.77340380  1
  O  O2114  1  0.92496940  0.48694160  0.97340380  1
  O  O2115  1  0.92496940  0.68694160  0.17340380  1
  O  O2116  1  0.92496940  0.68694160  0.37340380  1
  O  O2117  1  0.92496940  0.68694160  0.57340380  1
  O  O2118  1  0.92496940  0.68694160  0.77340380  1
  O  O2119  1  0.92496940  0.68694160  0.97340380  1
  O  O2120  1  0.92496940  0.88694160  0.17340380  1
  O  O2121  1  0.92496940  0.88694160  0.37340380  1
  O  O2122  1  0.92496940  0.88694160  0.57340380  1
  O  O2123  1  0.92496940  0.88694160  0.77340380  1
  O  O2124  1  0.92496940  0.88694160  0.97340380  1
  O  O2125  1  0.01166460  0.15552000  0.00888440  1
  O  O2126  1  0.01166460  0.15552000  0.20888440  1
  O  O2127  1  0.01166460  0.15552000  0.40888440  1
  O  O2128  1  0.01166460  0.15552000  0.60888440  1
  O  O2129  1  0.01166460  0.15552000  0.80888440  1
  O  O2130  1  0.01166460  0.35552000  0.00888440  1
  O  O2131  1  0.01166460  0.35552000  0.20888440  1
  O  O2132  1  0.01166460  0.35552000  0.40888440  1
  O  O2133  1  0.01166460  0.35552000  0.60888440  1
  O  O2134  1  0.01166460  0.35552000  0.80888440  1
  O  O2135  1  0.01166460  0.55552000  0.00888440  1
  O  O2136  1  0.01166460  0.55552000  0.20888440  1
  O  O2137  1  0.01166460  0.55552000  0.40888440  1
  O  O2138  1  0.01166460  0.55552000  0.60888440  1
  O  O2139  1  0.01166460  0.55552000  0.80888440  1
  O  O2140  1  0.01166460  0.75552000  0.00888440  1
  O  O2141  1  0.01166460  0.75552000  0.20888440  1
  O  O2142  1  0.01166460  0.75552000  0.40888440  1
  O  O2143  1  0.01166460  0.75552000  0.60888440  1
  O  O2144  1  0.01166460  0.75552000  0.80888440  1
  O  O2145  1  0.01166460  0.95552000  0.00888440  1
  O  O2146  1  0.01166460  0.95552000  0.20888440  1
  O  O2147  1  0.01166460  0.95552000  0.40888440  1
  O  O2148  1  0.01166460  0.95552000  0.60888440  1
  O  O2149  1  0.01166460  0.95552000  0.80888440  1
  O  O2150  1  0.21166460  0.15552000  0.00888440  1
  O  O2151  1  0.21166460  0.15552000  0.20888440  1
  O  O2152  1  0.21166460  0.15552000  0.40888440  1
  O  O2153  1  0.21166460  0.15552000  0.60888440  1
  O  O2154  1  0.21166460  0.15552000  0.80888440  1
  O  O2155  1  0.21166460  0.35552000  0.00888440  1
  O  O2156  1  0.21166460  0.35552000  0.20888440  1
  O  O2157  1  0.21166460  0.35552000  0.40888440  1
  O  O2158  1  0.21166460  0.35552000  0.60888440  1
  O  O2159  1  0.21166460  0.35552000  0.80888440  1
  O  O2160  1  0.21166460  0.55552000  0.00888440  1
  O  O2161  1  0.21166460  0.55552000  0.20888440  1
  O  O2162  1  0.21166460  0.55552000  0.40888440  1
  O  O2163  1  0.21166460  0.55552000  0.60888440  1
  O  O2164  1  0.21166460  0.55552000  0.80888440  1
  O  O2165  1  0.21166460  0.75552000  0.00888440  1
  O  O2166  1  0.21166460  0.75552000  0.20888440  1
  O  O2167  1  0.21166460  0.75552000  0.40888440  1
  O  O2168  1  0.21166460  0.75552000  0.60888440  1
  O  O2169  1  0.21166460  0.75552000  0.80888440  1
  O  O2170  1  0.21166460  0.95552000  0.00888440  1
  O  O2171  1  0.21166460  0.95552000  0.20888440  1
  O  O2172  1  0.21166460  0.95552000  0.40888440  1
  O  O2173  1  0.21166460  0.95552000  0.60888440  1
  O  O2174  1  0.21166460  0.95552000  0.80888440  1
  O  O2175  1  0.41166460  0.15552000  0.00888440  1
  O  O2176  1  0.41166460  0.15552000  0.20888440  1
  O  O2177  1  0.41166460  0.15552000  0.40888440  1
  O  O2178  1  0.41166460  0.15552000  0.60888440  1
  O  O2179  1  0.41166460  0.15552000  0.80888440  1
  O  O2180  1  0.41166460  0.35552000  0.00888440  1
  O  O2181  1  0.41166460  0.35552000  0.20888440  1
  O  O2182  1  0.41166460  0.35552000  0.40888440  1
  O  O2183  1  0.41166460  0.35552000  0.60888440  1
  O  O2184  1  0.41166460  0.35552000  0.80888440  1
  O  O2185  1  0.41166460  0.55552000  0.00888440  1
  O  O2186  1  0.41166460  0.55552000  0.20888440  1
  O  O2187  1  0.41166460  0.55552000  0.40888440  1
  O  O2188  1  0.41166460  0.55552000  0.60888440  1
  O  O2189  1  0.41166460  0.55552000  0.80888440  1
  O  O2190  1  0.41166460  0.75552000  0.00888440  1
  O  O2191  1  0.41166460  0.75552000  0.20888440  1
  O  O2192  1  0.41166460  0.75552000  0.40888440  1
  O  O2193  1  0.41166460  0.75552000  0.60888440  1
  O  O2194  1  0.41166460  0.75552000  0.80888440  1
  O  O2195  1  0.41166460  0.95552000  0.00888440  1
  O  O2196  1  0.41166460  0.95552000  0.20888440  1
  O  O2197  1  0.41166460  0.95552000  0.40888440  1
  O  O2198  1  0.41166460  0.95552000  0.60888440  1
  O  O2199  1  0.41166460  0.95552000  0.80888440  1
  O  O2200  1  0.61166460  0.15552000  0.00888440  1
  O  O2201  1  0.61166460  0.15552000  0.20888440  1
  O  O2202  1  0.61166460  0.15552000  0.40888440  1
  O  O2203  1  0.61166460  0.15552000  0.60888440  1
  O  O2204  1  0.61166460  0.15552000  0.80888440  1
  O  O2205  1  0.61166460  0.35552000  0.00888440  1
  O  O2206  1  0.61166460  0.35552000  0.20888440  1
  O  O2207  1  0.61166460  0.35552000  0.40888440  1
  O  O2208  1  0.61166460  0.35552000  0.60888440  1
  O  O2209  1  0.61166460  0.35552000  0.80888440  1
  O  O2210  1  0.61166460  0.55552000  0.00888440  1
  O  O2211  1  0.61166460  0.55552000  0.20888440  1
  O  O2212  1  0.61166460  0.55552000  0.40888440  1
  O  O2213  1  0.61166460  0.55552000  0.60888440  1
  O  O2214  1  0.61166460  0.55552000  0.80888440  1
  O  O2215  1  0.61166460  0.75552000  0.00888440  1
  O  O2216  1  0.61166460  0.75552000  0.20888440  1
  O  O2217  1  0.61166460  0.75552000  0.40888440  1
  O  O2218  1  0.61166460  0.75552000  0.60888440  1
  O  O2219  1  0.61166460  0.75552000  0.80888440  1
  O  O2220  1  0.61166460  0.95552000  0.00888440  1
  O  O2221  1  0.61166460  0.95552000  0.20888440  1
  O  O2222  1  0.61166460  0.95552000  0.40888440  1
  O  O2223  1  0.61166460  0.95552000  0.60888440  1
  O  O2224  1  0.61166460  0.95552000  0.80888440  1
  O  O2225  1  0.81166460  0.15552000  0.00888440  1
  O  O2226  1  0.81166460  0.15552000  0.20888440  1
  O  O2227  1  0.81166460  0.15552000  0.40888440  1
  O  O2228  1  0.81166460  0.15552000  0.60888440  1
  O  O2229  1  0.81166460  0.15552000  0.80888440  1
  O  O2230  1  0.81166460  0.35552000  0.00888440  1
  O  O2231  1  0.81166460  0.35552000  0.20888440  1
  O  O2232  1  0.81166460  0.35552000  0.40888440  1
  O  O2233  1  0.81166460  0.35552000  0.60888440  1
  O  O2234  1  0.81166460  0.35552000  0.80888440  1
  O  O2235  1  0.81166460  0.55552000  0.00888440  1
  O  O2236  1  0.81166460  0.55552000  0.20888440  1
  O  O2237  1  0.81166460  0.55552000  0.40888440  1
  O  O2238  1  0.81166460  0.55552000  0.60888440  1
  O  O2239  1  0.81166460  0.55552000  0.80888440  1
  O  O2240  1  0.81166460  0.75552000  0.00888440  1
  O  O2241  1  0.81166460  0.75552000  0.20888440  1
  O  O2242  1  0.81166460  0.75552000  0.40888440  1
  O  O2243  1  0.81166460  0.75552000  0.60888440  1
  O  O2244  1  0.81166460  0.75552000  0.80888440  1
  O  O2245  1  0.81166460  0.95552000  0.00888440  1
  O  O2246  1  0.81166460  0.95552000  0.20888440  1
  O  O2247  1  0.81166460  0.95552000  0.40888440  1
  O  O2248  1  0.81166460  0.95552000  0.60888440  1
  O  O2249  1  0.81166460  0.95552000  0.80888440  1
  O  O2250  1  0.02208240  0.09848020  0.07457800  1
  O  O2251  1  0.02208240  0.09848020  0.27457800  1
  O  O2252  1  0.02208240  0.09848020  0.47457800  1
  O  O2253  1  0.02208240  0.09848020  0.67457800  1
  O  O2254  1  0.02208240  0.09848020  0.87457800  1
  O  O2255  1  0.02208240  0.29848020  0.07457800  1
  O  O2256  1  0.02208240  0.29848020  0.27457800  1
  O  O2257  1  0.02208240  0.29848020  0.47457800  1
  O  O2258  1  0.02208240  0.29848020  0.67457800  1
  O  O2259  1  0.02208240  0.29848020  0.87457800  1
  O  O2260  1  0.02208240  0.49848020  0.07457800  1
  O  O2261  1  0.02208240  0.49848020  0.27457800  1
  O  O2262  1  0.02208240  0.49848020  0.47457800  1
  O  O2263  1  0.02208240  0.49848020  0.67457800  1
  O  O2264  1  0.02208240  0.49848020  0.87457800  1
  O  O2265  1  0.02208240  0.69848020  0.07457800  1
  O  O2266  1  0.02208240  0.69848020  0.27457800  1
  O  O2267  1  0.02208240  0.69848020  0.47457800  1
  O  O2268  1  0.02208240  0.69848020  0.67457800  1
  O  O2269  1  0.02208240  0.69848020  0.87457800  1
  O  O2270  1  0.02208240  0.89848020  0.07457800  1
  O  O2271  1  0.02208240  0.89848020  0.27457800  1
  O  O2272  1  0.02208240  0.89848020  0.47457800  1
  O  O2273  1  0.02208240  0.89848020  0.67457800  1
  O  O2274  1  0.02208240  0.89848020  0.87457800  1
  O  O2275  1  0.22208240  0.09848020  0.07457800  1
  O  O2276  1  0.22208240  0.09848020  0.27457800  1
  O  O2277  1  0.22208240  0.09848020  0.47457800  1
  O  O2278  1  0.22208240  0.09848020  0.67457800  1
  O  O2279  1  0.22208240  0.09848020  0.87457800  1
  O  O2280  1  0.22208240  0.29848020  0.07457800  1
  O  O2281  1  0.22208240  0.29848020  0.27457800  1
  O  O2282  1  0.22208240  0.29848020  0.47457800  1
  O  O2283  1  0.22208240  0.29848020  0.67457800  1
  O  O2284  1  0.22208240  0.29848020  0.87457800  1
  O  O2285  1  0.22208240  0.49848020  0.07457800  1
  O  O2286  1  0.22208240  0.49848020  0.27457800  1
  O  O2287  1  0.22208240  0.49848020  0.47457800  1
  O  O2288  1  0.22208240  0.49848020  0.67457800  1
  O  O2289  1  0.22208240  0.49848020  0.87457800  1
  O  O2290  1  0.22208240  0.69848020  0.07457800  1
  O  O2291  1  0.22208240  0.69848020  0.27457800  1
  O  O2292  1  0.22208240  0.69848020  0.47457800  1
  O  O2293  1  0.22208240  0.69848020  0.67457800  1
  O  O2294  1  0.22208240  0.69848020  0.87457800  1
  O  O2295  1  0.22208240  0.89848020  0.07457800  1
  O  O2296  1  0.22208240  0.89848020  0.27457800  1
  O  O2297  1  0.22208240  0.89848020  0.47457800  1
  O  O2298  1  0.22208240  0.89848020  0.67457800  1
  O  O2299  1  0.22208240  0.89848020  0.87457800  1
  O  O2300  1  0.42208240  0.09848020  0.07457800  1
  O  O2301  1  0.42208240  0.09848020  0.27457800  1
  O  O2302  1  0.42208240  0.09848020  0.47457800  1
  O  O2303  1  0.42208240  0.09848020  0.67457800  1
  O  O2304  1  0.42208240  0.09848020  0.87457800  1
  O  O2305  1  0.42208240  0.29848020  0.07457800  1
  O  O2306  1  0.42208240  0.29848020  0.27457800  1
  O  O2307  1  0.42208240  0.29848020  0.47457800  1
  O  O2308  1  0.42208240  0.29848020  0.67457800  1
  O  O2309  1  0.42208240  0.29848020  0.87457800  1
  O  O2310  1  0.42208240  0.49848020  0.07457800  1
  O  O2311  1  0.42208240  0.49848020  0.27457800  1
  O  O2312  1  0.42208240  0.49848020  0.47457800  1
  O  O2313  1  0.42208240  0.49848020  0.67457800  1
  O  O2314  1  0.42208240  0.49848020  0.87457800  1
  O  O2315  1  0.42208240  0.69848020  0.07457800  1
  O  O2316  1  0.42208240  0.69848020  0.27457800  1
  O  O2317  1  0.42208240  0.69848020  0.47457800  1
  O  O2318  1  0.42208240  0.69848020  0.67457800  1
  O  O2319  1  0.42208240  0.69848020  0.87457800  1
  O  O2320  1  0.42208240  0.89848020  0.07457800  1
  O  O2321  1  0.42208240  0.89848020  0.27457800  1
  O  O2322  1  0.42208240  0.89848020  0.47457800  1
  O  O2323  1  0.42208240  0.89848020  0.67457800  1
  O  O2324  1  0.42208240  0.89848020  0.87457800  1
  O  O2325  1  0.62208240  0.09848020  0.07457800  1
  O  O2326  1  0.62208240  0.09848020  0.27457800  1
  O  O2327  1  0.62208240  0.09848020  0.47457800  1
  O  O2328  1  0.62208240  0.09848020  0.67457800  1
  O  O2329  1  0.62208240  0.09848020  0.87457800  1
  O  O2330  1  0.62208240  0.29848020  0.07457800  1
  O  O2331  1  0.62208240  0.29848020  0.27457800  1
  O  O2332  1  0.62208240  0.29848020  0.47457800  1
  O  O2333  1  0.62208240  0.29848020  0.67457800  1
  O  O2334  1  0.62208240  0.29848020  0.87457800  1
  O  O2335  1  0.62208240  0.49848020  0.07457800  1
  O  O2336  1  0.62208240  0.49848020  0.27457800  1
  O  O2337  1  0.62208240  0.49848020  0.47457800  1
  O  O2338  1  0.62208240  0.49848020  0.67457800  1
  O  O2339  1  0.62208240  0.49848020  0.87457800  1
  O  O2340  1  0.62208240  0.69848020  0.07457800  1
  O  O2341  1  0.62208240  0.69848020  0.27457800  1
  O  O2342  1  0.62208240  0.69848020  0.47457800  1
  O  O2343  1  0.62208240  0.69848020  0.67457800  1
  O  O2344  1  0.62208240  0.69848020  0.87457800  1
  O  O2345  1  0.62208240  0.89848020  0.07457800  1
  O  O2346  1  0.62208240  0.89848020  0.27457800  1
  O  O2347  1  0.62208240  0.89848020  0.47457800  1
  O  O2348  1  0.62208240  0.89848020  0.67457800  1
  O  O2349  1  0.62208240  0.89848020  0.87457800  1
  O  O2350  1  0.82208240  0.09848020  0.07457800  1
  O  O2351  1  0.82208240  0.09848020  0.27457800  1
  O  O2352  1  0.82208240  0.09848020  0.47457800  1
  O  O2353  1  0.82208240  0.09848020  0.67457800  1
  O  O2354  1  0.82208240  0.09848020  0.87457800  1
  O  O2355  1  0.82208240  0.29848020  0.07457800  1
  O  O2356  1  0.82208240  0.29848020  0.27457800  1
  O  O2357  1  0.82208240  0.29848020  0.47457800  1
  O  O2358  1  0.82208240  0.29848020  0.67457800  1
  O  O2359  1  0.82208240  0.29848020  0.87457800  1
  O  O2360  1  0.82208240  0.49848020  0.07457800  1
  O  O2361  1  0.82208240  0.49848020  0.27457800  1
  O  O2362  1  0.82208240  0.49848020  0.47457800  1
  O  O2363  1  0.82208240  0.49848020  0.67457800  1
  O  O2364  1  0.82208240  0.49848020  0.87457800  1
  O  O2365  1  0.82208240  0.69848020  0.07457800  1
  O  O2366  1  0.82208240  0.69848020  0.27457800  1
  O  O2367  1  0.82208240  0.69848020  0.47457800  1
  O  O2368  1  0.82208240  0.69848020  0.67457800  1
  O  O2369  1  0.82208240  0.69848020  0.87457800  1
  O  O2370  1  0.82208240  0.89848020  0.07457800  1
  O  O2371  1  0.82208240  0.89848020  0.27457800  1
  O  O2372  1  0.82208240  0.89848020  0.47457800  1
  O  O2373  1  0.82208240  0.89848020  0.67457800  1
  O  O2374  1  0.82208240  0.89848020  0.87457800  1
  O  O2375  1  0.16920140  0.03388480  0.14237220  1
  O  O2376  1  0.16920140  0.03388480  0.34237220  1
  O  O2377  1  0.16920140  0.03388480  0.54237220  1
  O  O2378  1  0.16920140  0.03388480  0.74237220  1
  O  O2379  1  0.16920140  0.03388480  0.94237220  1
  O  O2380  1  0.16920140  0.23388480  0.14237220  1
  O  O2381  1  0.16920140  0.23388480  0.34237220  1
  O  O2382  1  0.16920140  0.23388480  0.54237220  1
  O  O2383  1  0.16920140  0.23388480  0.74237220  1
  O  O2384  1  0.16920140  0.23388480  0.94237220  1
  O  O2385  1  0.16920140  0.43388480  0.14237220  1
  O  O2386  1  0.16920140  0.43388480  0.34237220  1
  O  O2387  1  0.16920140  0.43388480  0.54237220  1
  O  O2388  1  0.16920140  0.43388480  0.74237220  1
  O  O2389  1  0.16920140  0.43388480  0.94237220  1
  O  O2390  1  0.16920140  0.63388480  0.14237220  1
  O  O2391  1  0.16920140  0.63388480  0.34237220  1
  O  O2392  1  0.16920140  0.63388480  0.54237220  1
  O  O2393  1  0.16920140  0.63388480  0.74237220  1
  O  O2394  1  0.16920140  0.63388480  0.94237220  1
  O  O2395  1  0.16920140  0.83388480  0.14237220  1
  O  O2396  1  0.16920140  0.83388480  0.34237220  1
  O  O2397  1  0.16920140  0.83388480  0.54237220  1
  O  O2398  1  0.16920140  0.83388480  0.74237220  1
  O  O2399  1  0.16920140  0.83388480  0.94237220  1
  O  O2400  1  0.36920140  0.03388480  0.14237220  1
  O  O2401  1  0.36920140  0.03388480  0.34237220  1
  O  O2402  1  0.36920140  0.03388480  0.54237220  1
  O  O2403  1  0.36920140  0.03388480  0.74237220  1
  O  O2404  1  0.36920140  0.03388480  0.94237220  1
  O  O2405  1  0.36920140  0.23388480  0.14237220  1
  O  O2406  1  0.36920140  0.23388480  0.34237220  1
  O  O2407  1  0.36920140  0.23388480  0.54237220  1
  O  O2408  1  0.36920140  0.23388480  0.74237220  1
  O  O2409  1  0.36920140  0.23388480  0.94237220  1
  O  O2410  1  0.36920140  0.43388480  0.14237220  1
  O  O2411  1  0.36920140  0.43388480  0.34237220  1
  O  O2412  1  0.36920140  0.43388480  0.54237220  1
  O  O2413  1  0.36920140  0.43388480  0.74237220  1
  O  O2414  1  0.36920140  0.43388480  0.94237220  1
  O  O2415  1  0.36920140  0.63388480  0.14237220  1
  O  O2416  1  0.36920140  0.63388480  0.34237220  1
  O  O2417  1  0.36920140  0.63388480  0.54237220  1
  O  O2418  1  0.36920140  0.63388480  0.74237220  1
  O  O2419  1  0.36920140  0.63388480  0.94237220  1
  O  O2420  1  0.36920140  0.83388480  0.14237220  1
  O  O2421  1  0.36920140  0.83388480  0.34237220  1
  O  O2422  1  0.36920140  0.83388480  0.54237220  1
  O  O2423  1  0.36920140  0.83388480  0.74237220  1
  O  O2424  1  0.36920140  0.83388480  0.94237220  1
  O  O2425  1  0.56920140  0.03388480  0.14237220  1
  O  O2426  1  0.56920140  0.03388480  0.34237220  1
  O  O2427  1  0.56920140  0.03388480  0.54237220  1
  O  O2428  1  0.56920140  0.03388480  0.74237220  1
  O  O2429  1  0.56920140  0.03388480  0.94237220  1
  O  O2430  1  0.56920140  0.23388480  0.14237220  1
  O  O2431  1  0.56920140  0.23388480  0.34237220  1
  O  O2432  1  0.56920140  0.23388480  0.54237220  1
  O  O2433  1  0.56920140  0.23388480  0.74237220  1
  O  O2434  1  0.56920140  0.23388480  0.94237220  1
  O  O2435  1  0.56920140  0.43388480  0.14237220  1
  O  O2436  1  0.56920140  0.43388480  0.34237220  1
  O  O2437  1  0.56920140  0.43388480  0.54237220  1
  O  O2438  1  0.56920140  0.43388480  0.74237220  1
  O  O2439  1  0.56920140  0.43388480  0.94237220  1
  O  O2440  1  0.56920140  0.63388480  0.14237220  1
  O  O2441  1  0.56920140  0.63388480  0.34237220  1
  O  O2442  1  0.56920140  0.63388480  0.54237220  1
  O  O2443  1  0.56920140  0.63388480  0.74237220  1
  O  O2444  1  0.56920140  0.63388480  0.94237220  1
  O  O2445  1  0.56920140  0.83388480  0.14237220  1
  O  O2446  1  0.56920140  0.83388480  0.34237220  1
  O  O2447  1  0.56920140  0.83388480  0.54237220  1
  O  O2448  1  0.56920140  0.83388480  0.74237220  1
  O  O2449  1  0.56920140  0.83388480  0.94237220  1
  O  O2450  1  0.76920140  0.03388480  0.14237220  1
  O  O2451  1  0.76920140  0.03388480  0.34237220  1
  O  O2452  1  0.76920140  0.03388480  0.54237220  1
  O  O2453  1  0.76920140  0.03388480  0.74237220  1
  O  O2454  1  0.76920140  0.03388480  0.94237220  1
  O  O2455  1  0.76920140  0.23388480  0.14237220  1
  O  O2456  1  0.76920140  0.23388480  0.34237220  1
  O  O2457  1  0.76920140  0.23388480  0.54237220  1
  O  O2458  1  0.76920140  0.23388480  0.74237220  1
  O  O2459  1  0.76920140  0.23388480  0.94237220  1
  O  O2460  1  0.76920140  0.43388480  0.14237220  1
  O  O2461  1  0.76920140  0.43388480  0.34237220  1
  O  O2462  1  0.76920140  0.43388480  0.54237220  1
  O  O2463  1  0.76920140  0.43388480  0.74237220  1
  O  O2464  1  0.76920140  0.43388480  0.94237220  1
  O  O2465  1  0.76920140  0.63388480  0.14237220  1
  O  O2466  1  0.76920140  0.63388480  0.34237220  1
  O  O2467  1  0.76920140  0.63388480  0.54237220  1
  O  O2468  1  0.76920140  0.63388480  0.74237220  1
  O  O2469  1  0.76920140  0.63388480  0.94237220  1
  O  O2470  1  0.76920140  0.83388480  0.14237220  1
  O  O2471  1  0.76920140  0.83388480  0.34237220  1
  O  O2472  1  0.76920140  0.83388480  0.54237220  1
  O  O2473  1  0.76920140  0.83388480  0.74237220  1
  O  O2474  1  0.76920140  0.83388480  0.94237220  1
  O  O2475  1  0.96920140  0.03388480  0.14237220  1
  O  O2476  1  0.96920140  0.03388480  0.34237220  1
  O  O2477  1  0.96920140  0.03388480  0.54237220  1
  O  O2478  1  0.96920140  0.03388480  0.74237220  1
  O  O2479  1  0.96920140  0.03388480  0.94237220  1
  O  O2480  1  0.96920140  0.23388480  0.14237220  1
  O  O2481  1  0.96920140  0.23388480  0.34237220  1
  O  O2482  1  0.96920140  0.23388480  0.54237220  1
  O  O2483  1  0.96920140  0.23388480  0.74237220  1
  O  O2484  1  0.96920140  0.23388480  0.94237220  1
  O  O2485  1  0.96920140  0.43388480  0.14237220  1
  O  O2486  1  0.96920140  0.43388480  0.34237220  1
  O  O2487  1  0.96920140  0.43388480  0.54237220  1
  O  O2488  1  0.96920140  0.43388480  0.74237220  1
  O  O2489  1  0.96920140  0.43388480  0.94237220  1
  O  O2490  1  0.96920140  0.63388480  0.14237220  1
  O  O2491  1  0.96920140  0.63388480  0.34237220  1
  O  O2492  1  0.96920140  0.63388480  0.54237220  1
  O  O2493  1  0.96920140  0.63388480  0.74237220  1
  O  O2494  1  0.96920140  0.63388480  0.94237220  1
  O  O2495  1  0.96920140  0.83388480  0.14237220  1
  O  O2496  1  0.96920140  0.83388480  0.34237220  1
  O  O2497  1  0.96920140  0.83388480  0.54237220  1
  O  O2498  1  0.96920140  0.83388480  0.74237220  1
  O  O2499  1  0.96920140  0.83388480  0.94237220  1
  O  O2500  1  0.13556220  0.15524260  0.15738680  1
  O  O2501  1  0.13556220  0.15524260  0.35738680  1
  O  O2502  1  0.13556220  0.15524260  0.55738680  1
  O  O2503  1  0.13556220  0.15524260  0.75738680  1
  O  O2504  1  0.13556220  0.15524260  0.95738680  1
  O  O2505  1  0.13556220  0.35524260  0.15738680  1
  O  O2506  1  0.13556220  0.35524260  0.35738680  1
  O  O2507  1  0.13556220  0.35524260  0.55738680  1
  O  O2508  1  0.13556220  0.35524260  0.75738680  1
  O  O2509  1  0.13556220  0.35524260  0.95738680  1
  O  O2510  1  0.13556220  0.55524260  0.15738680  1
  O  O2511  1  0.13556220  0.55524260  0.35738680  1
  O  O2512  1  0.13556220  0.55524260  0.55738680  1
  O  O2513  1  0.13556220  0.55524260  0.75738680  1
  O  O2514  1  0.13556220  0.55524260  0.95738680  1
  O  O2515  1  0.13556220  0.75524260  0.15738680  1
  O  O2516  1  0.13556220  0.75524260  0.35738680  1
  O  O2517  1  0.13556220  0.75524260  0.55738680  1
  O  O2518  1  0.13556220  0.75524260  0.75738680  1
  O  O2519  1  0.13556220  0.75524260  0.95738680  1
  O  O2520  1  0.13556220  0.95524260  0.15738680  1
  O  O2521  1  0.13556220  0.95524260  0.35738680  1
  O  O2522  1  0.13556220  0.95524260  0.55738680  1
  O  O2523  1  0.13556220  0.95524260  0.75738680  1
  O  O2524  1  0.13556220  0.95524260  0.95738680  1
  O  O2525  1  0.33556220  0.15524260  0.15738680  1
  O  O2526  1  0.33556220  0.15524260  0.35738680  1
  O  O2527  1  0.33556220  0.15524260  0.55738680  1
  O  O2528  1  0.33556220  0.15524260  0.75738680  1
  O  O2529  1  0.33556220  0.15524260  0.95738680  1
  O  O2530  1  0.33556220  0.35524260  0.15738680  1
  O  O2531  1  0.33556220  0.35524260  0.35738680  1
  O  O2532  1  0.33556220  0.35524260  0.55738680  1
  O  O2533  1  0.33556220  0.35524260  0.75738680  1
  O  O2534  1  0.33556220  0.35524260  0.95738680  1
  O  O2535  1  0.33556220  0.55524260  0.15738680  1
  O  O2536  1  0.33556220  0.55524260  0.35738680  1
  O  O2537  1  0.33556220  0.55524260  0.55738680  1
  O  O2538  1  0.33556220  0.55524260  0.75738680  1
  O  O2539  1  0.33556220  0.55524260  0.95738680  1
  O  O2540  1  0.33556220  0.75524260  0.15738680  1
  O  O2541  1  0.33556220  0.75524260  0.35738680  1
  O  O2542  1  0.33556220  0.75524260  0.55738680  1
  O  O2543  1  0.33556220  0.75524260  0.75738680  1
  O  O2544  1  0.33556220  0.75524260  0.95738680  1
  O  O2545  1  0.33556220  0.95524260  0.15738680  1
  O  O2546  1  0.33556220  0.95524260  0.35738680  1
  O  O2547  1  0.33556220  0.95524260  0.55738680  1
  O  O2548  1  0.33556220  0.95524260  0.75738680  1
  O  O2549  1  0.33556220  0.95524260  0.95738680  1
  O  O2550  1  0.53556220  0.15524260  0.15738680  1
  O  O2551  1  0.53556220  0.15524260  0.35738680  1
  O  O2552  1  0.53556220  0.15524260  0.55738680  1
  O  O2553  1  0.53556220  0.15524260  0.75738680  1
  O  O2554  1  0.53556220  0.15524260  0.95738680  1
  O  O2555  1  0.53556220  0.35524260  0.15738680  1
  O  O2556  1  0.53556220  0.35524260  0.35738680  1
  O  O2557  1  0.53556220  0.35524260  0.55738680  1
  O  O2558  1  0.53556220  0.35524260  0.75738680  1
  O  O2559  1  0.53556220  0.35524260  0.95738680  1
  O  O2560  1  0.53556220  0.55524260  0.15738680  1
  O  O2561  1  0.53556220  0.55524260  0.35738680  1
  O  O2562  1  0.53556220  0.55524260  0.55738680  1
  O  O2563  1  0.53556220  0.55524260  0.75738680  1
  O  O2564  1  0.53556220  0.55524260  0.95738680  1
  O  O2565  1  0.53556220  0.75524260  0.15738680  1
  O  O2566  1  0.53556220  0.75524260  0.35738680  1
  O  O2567  1  0.53556220  0.75524260  0.55738680  1
  O  O2568  1  0.53556220  0.75524260  0.75738680  1
  O  O2569  1  0.53556220  0.75524260  0.95738680  1
  O  O2570  1  0.53556220  0.95524260  0.15738680  1
  O  O2571  1  0.53556220  0.95524260  0.35738680  1
  O  O2572  1  0.53556220  0.95524260  0.55738680  1
  O  O2573  1  0.53556220  0.95524260  0.75738680  1
  O  O2574  1  0.53556220  0.95524260  0.95738680  1
  O  O2575  1  0.73556220  0.15524260  0.15738680  1
  O  O2576  1  0.73556220  0.15524260  0.35738680  1
  O  O2577  1  0.73556220  0.15524260  0.55738680  1
  O  O2578  1  0.73556220  0.15524260  0.75738680  1
  O  O2579  1  0.73556220  0.15524260  0.95738680  1
  O  O2580  1  0.73556220  0.35524260  0.15738680  1
  O  O2581  1  0.73556220  0.35524260  0.35738680  1
  O  O2582  1  0.73556220  0.35524260  0.55738680  1
  O  O2583  1  0.73556220  0.35524260  0.75738680  1
  O  O2584  1  0.73556220  0.35524260  0.95738680  1
  O  O2585  1  0.73556220  0.55524260  0.15738680  1
  O  O2586  1  0.73556220  0.55524260  0.35738680  1
  O  O2587  1  0.73556220  0.55524260  0.55738680  1
  O  O2588  1  0.73556220  0.55524260  0.75738680  1
  O  O2589  1  0.73556220  0.55524260  0.95738680  1
  O  O2590  1  0.73556220  0.75524260  0.15738680  1
  O  O2591  1  0.73556220  0.75524260  0.35738680  1
  O  O2592  1  0.73556220  0.75524260  0.55738680  1
  O  O2593  1  0.73556220  0.75524260  0.75738680  1
  O  O2594  1  0.73556220  0.75524260  0.95738680  1
  O  O2595  1  0.73556220  0.95524260  0.15738680  1
  O  O2596  1  0.73556220  0.95524260  0.35738680  1
  O  O2597  1  0.73556220  0.95524260  0.55738680  1
  O  O2598  1  0.73556220  0.95524260  0.75738680  1
  O  O2599  1  0.73556220  0.95524260  0.95738680  1
  O  O2600  1  0.93556220  0.15524260  0.15738680  1
  O  O2601  1  0.93556220  0.15524260  0.35738680  1
  O  O2602  1  0.93556220  0.15524260  0.55738680  1
  O  O2603  1  0.93556220  0.15524260  0.75738680  1
  O  O2604  1  0.93556220  0.15524260  0.95738680  1
  O  O2605  1  0.93556220  0.35524260  0.15738680  1
  O  O2606  1  0.93556220  0.35524260  0.35738680  1
  O  O2607  1  0.93556220  0.35524260  0.55738680  1
  O  O2608  1  0.93556220  0.35524260  0.75738680  1
  O  O2609  1  0.93556220  0.35524260  0.95738680  1
  O  O2610  1  0.93556220  0.55524260  0.15738680  1
  O  O2611  1  0.93556220  0.55524260  0.35738680  1
  O  O2612  1  0.93556220  0.55524260  0.55738680  1
  O  O2613  1  0.93556220  0.55524260  0.75738680  1
  O  O2614  1  0.93556220  0.55524260  0.95738680  1
  O  O2615  1  0.93556220  0.75524260  0.15738680  1
  O  O2616  1  0.93556220  0.75524260  0.35738680  1
  O  O2617  1  0.93556220  0.75524260  0.55738680  1
  O  O2618  1  0.93556220  0.75524260  0.75738680  1
  O  O2619  1  0.93556220  0.75524260  0.95738680  1
  O  O2620  1  0.93556220  0.95524260  0.15738680  1
  O  O2621  1  0.93556220  0.95524260  0.35738680  1
  O  O2622  1  0.93556220  0.95524260  0.55738680  1
  O  O2623  1  0.93556220  0.95524260  0.75738680  1
  O  O2624  1  0.93556220  0.95524260  0.95738680  1
  O  O2625  1  0.05743640  0.12305700  0.17640220  1
  O  O2626  1  0.05743640  0.12305700  0.37640220  1
  O  O2627  1  0.05743640  0.12305700  0.57640220  1
  O  O2628  1  0.05743640  0.12305700  0.77640220  1
  O  O2629  1  0.05743640  0.12305700  0.97640220  1
  O  O2630  1  0.05743640  0.32305700  0.17640220  1
  O  O2631  1  0.05743640  0.32305700  0.37640220  1
  O  O2632  1  0.05743640  0.32305700  0.57640220  1
  O  O2633  1  0.05743640  0.32305700  0.77640220  1
  O  O2634  1  0.05743640  0.32305700  0.97640220  1
  O  O2635  1  0.05743640  0.52305700  0.17640220  1
  O  O2636  1  0.05743640  0.52305700  0.37640220  1
  O  O2637  1  0.05743640  0.52305700  0.57640220  1
  O  O2638  1  0.05743640  0.52305700  0.77640220  1
  O  O2639  1  0.05743640  0.52305700  0.97640220  1
  O  O2640  1  0.05743640  0.72305700  0.17640220  1
  O  O2641  1  0.05743640  0.72305700  0.37640220  1
  O  O2642  1  0.05743640  0.72305700  0.57640220  1
  O  O2643  1  0.05743640  0.72305700  0.77640220  1
  O  O2644  1  0.05743640  0.72305700  0.97640220  1
  O  O2645  1  0.05743640  0.92305700  0.17640220  1
  O  O2646  1  0.05743640  0.92305700  0.37640220  1
  O  O2647  1  0.05743640  0.92305700  0.57640220  1
  O  O2648  1  0.05743640  0.92305700  0.77640220  1
  O  O2649  1  0.05743640  0.92305700  0.97640220  1
  O  O2650  1  0.25743640  0.12305700  0.17640220  1
  O  O2651  1  0.25743640  0.12305700  0.37640220  1
  O  O2652  1  0.25743640  0.12305700  0.57640220  1
  O  O2653  1  0.25743640  0.12305700  0.77640220  1
  O  O2654  1  0.25743640  0.12305700  0.97640220  1
  O  O2655  1  0.25743640  0.32305700  0.17640220  1
  O  O2656  1  0.25743640  0.32305700  0.37640220  1
  O  O2657  1  0.25743640  0.32305700  0.57640220  1
  O  O2658  1  0.25743640  0.32305700  0.77640220  1
  O  O2659  1  0.25743640  0.32305700  0.97640220  1
  O  O2660  1  0.25743640  0.52305700  0.17640220  1
  O  O2661  1  0.25743640  0.52305700  0.37640220  1
  O  O2662  1  0.25743640  0.52305700  0.57640220  1
  O  O2663  1  0.25743640  0.52305700  0.77640220  1
  O  O2664  1  0.25743640  0.52305700  0.97640220  1
  O  O2665  1  0.25743640  0.72305700  0.17640220  1
  O  O2666  1  0.25743640  0.72305700  0.37640220  1
  O  O2667  1  0.25743640  0.72305700  0.57640220  1
  O  O2668  1  0.25743640  0.72305700  0.77640220  1
  O  O2669  1  0.25743640  0.72305700  0.97640220  1
  O  O2670  1  0.25743640  0.92305700  0.17640220  1
  O  O2671  1  0.25743640  0.92305700  0.37640220  1
  O  O2672  1  0.25743640  0.92305700  0.57640220  1
  O  O2673  1  0.25743640  0.92305700  0.77640220  1
  O  O2674  1  0.25743640  0.92305700  0.97640220  1
  O  O2675  1  0.45743640  0.12305700  0.17640220  1
  O  O2676  1  0.45743640  0.12305700  0.37640220  1
  O  O2677  1  0.45743640  0.12305700  0.57640220  1
  O  O2678  1  0.45743640  0.12305700  0.77640220  1
  O  O2679  1  0.45743640  0.12305700  0.97640220  1
  O  O2680  1  0.45743640  0.32305700  0.17640220  1
  O  O2681  1  0.45743640  0.32305700  0.37640220  1
  O  O2682  1  0.45743640  0.32305700  0.57640220  1
  O  O2683  1  0.45743640  0.32305700  0.77640220  1
  O  O2684  1  0.45743640  0.32305700  0.97640220  1
  O  O2685  1  0.45743640  0.52305700  0.17640220  1
  O  O2686  1  0.45743640  0.52305700  0.37640220  1
  O  O2687  1  0.45743640  0.52305700  0.57640220  1
  O  O2688  1  0.45743640  0.52305700  0.77640220  1
  O  O2689  1  0.45743640  0.52305700  0.97640220  1
  O  O2690  1  0.45743640  0.72305700  0.17640220  1
  O  O2691  1  0.45743640  0.72305700  0.37640220  1
  O  O2692  1  0.45743640  0.72305700  0.57640220  1
  O  O2693  1  0.45743640  0.72305700  0.77640220  1
  O  O2694  1  0.45743640  0.72305700  0.97640220  1
  O  O2695  1  0.45743640  0.92305700  0.17640220  1
  O  O2696  1  0.45743640  0.92305700  0.37640220  1
  O  O2697  1  0.45743640  0.92305700  0.57640220  1
  O  O2698  1  0.45743640  0.92305700  0.77640220  1
  O  O2699  1  0.45743640  0.92305700  0.97640220  1
  O  O2700  1  0.65743640  0.12305700  0.17640220  1
  O  O2701  1  0.65743640  0.12305700  0.37640220  1
  O  O2702  1  0.65743640  0.12305700  0.57640220  1
  O  O2703  1  0.65743640  0.12305700  0.77640220  1
  O  O2704  1  0.65743640  0.12305700  0.97640220  1
  O  O2705  1  0.65743640  0.32305700  0.17640220  1
  O  O2706  1  0.65743640  0.32305700  0.37640220  1
  O  O2707  1  0.65743640  0.32305700  0.57640220  1
  O  O2708  1  0.65743640  0.32305700  0.77640220  1
  O  O2709  1  0.65743640  0.32305700  0.97640220  1
  O  O2710  1  0.65743640  0.52305700  0.17640220  1
  O  O2711  1  0.65743640  0.52305700  0.37640220  1
  O  O2712  1  0.65743640  0.52305700  0.57640220  1
  O  O2713  1  0.65743640  0.52305700  0.77640220  1
  O  O2714  1  0.65743640  0.52305700  0.97640220  1
  O  O2715  1  0.65743640  0.72305700  0.17640220  1
  O  O2716  1  0.65743640  0.72305700  0.37640220  1
  O  O2717  1  0.65743640  0.72305700  0.57640220  1
  O  O2718  1  0.65743640  0.72305700  0.77640220  1
  O  O2719  1  0.65743640  0.72305700  0.97640220  1
  O  O2720  1  0.65743640  0.92305700  0.17640220  1
  O  O2721  1  0.65743640  0.92305700  0.37640220  1
  O  O2722  1  0.65743640  0.92305700  0.57640220  1
  O  O2723  1  0.65743640  0.92305700  0.77640220  1
  O  O2724  1  0.65743640  0.92305700  0.97640220  1
  O  O2725  1  0.85743640  0.12305700  0.17640220  1
  O  O2726  1  0.85743640  0.12305700  0.37640220  1
  O  O2727  1  0.85743640  0.12305700  0.57640220  1
  O  O2728  1  0.85743640  0.12305700  0.77640220  1
  O  O2729  1  0.85743640  0.12305700  0.97640220  1
  O  O2730  1  0.85743640  0.32305700  0.17640220  1
  O  O2731  1  0.85743640  0.32305700  0.37640220  1
  O  O2732  1  0.85743640  0.32305700  0.57640220  1
  O  O2733  1  0.85743640  0.32305700  0.77640220  1
  O  O2734  1  0.85743640  0.32305700  0.97640220  1
  O  O2735  1  0.85743640  0.52305700  0.17640220  1
  O  O2736  1  0.85743640  0.52305700  0.37640220  1
  O  O2737  1  0.85743640  0.52305700  0.57640220  1
  O  O2738  1  0.85743640  0.52305700  0.77640220  1
  O  O2739  1  0.85743640  0.52305700  0.97640220  1
  O  O2740  1  0.85743640  0.72305700  0.17640220  1
  O  O2741  1  0.85743640  0.72305700  0.37640220  1
  O  O2742  1  0.85743640  0.72305700  0.57640220  1
  O  O2743  1  0.85743640  0.72305700  0.77640220  1
  O  O2744  1  0.85743640  0.72305700  0.97640220  1
  O  O2745  1  0.85743640  0.92305700  0.17640220  1
  O  O2746  1  0.85743640  0.92305700  0.37640220  1
  O  O2747  1  0.85743640  0.92305700  0.57640220  1
  O  O2748  1  0.85743640  0.92305700  0.77640220  1
  O  O2749  1  0.85743640  0.92305700  0.97640220  1
  O  O2750  1  0.17791760  0.10151980  0.12542200  1
  O  O2751  1  0.17791760  0.10151980  0.32542200  1
  O  O2752  1  0.17791760  0.10151980  0.52542200  1
  O  O2753  1  0.17791760  0.10151980  0.72542200  1
  O  O2754  1  0.17791760  0.10151980  0.92542200  1
  O  O2755  1  0.17791760  0.30151980  0.12542200  1
  O  O2756  1  0.17791760  0.30151980  0.32542200  1
  O  O2757  1  0.17791760  0.30151980  0.52542200  1
  O  O2758  1  0.17791760  0.30151980  0.72542200  1
  O  O2759  1  0.17791760  0.30151980  0.92542200  1
  O  O2760  1  0.17791760  0.50151980  0.12542200  1
  O  O2761  1  0.17791760  0.50151980  0.32542200  1
  O  O2762  1  0.17791760  0.50151980  0.52542200  1
  O  O2763  1  0.17791760  0.50151980  0.72542200  1
  O  O2764  1  0.17791760  0.50151980  0.92542200  1
  O  O2765  1  0.17791760  0.70151980  0.12542200  1
  O  O2766  1  0.17791760  0.70151980  0.32542200  1
  O  O2767  1  0.17791760  0.70151980  0.52542200  1
  O  O2768  1  0.17791760  0.70151980  0.72542200  1
  O  O2769  1  0.17791760  0.70151980  0.92542200  1
  O  O2770  1  0.17791760  0.90151980  0.12542200  1
  O  O2771  1  0.17791760  0.90151980  0.32542200  1
  O  O2772  1  0.17791760  0.90151980  0.52542200  1
  O  O2773  1  0.17791760  0.90151980  0.72542200  1
  O  O2774  1  0.17791760  0.90151980  0.92542200  1
  O  O2775  1  0.37791760  0.10151980  0.12542200  1
  O  O2776  1  0.37791760  0.10151980  0.32542200  1
  O  O2777  1  0.37791760  0.10151980  0.52542200  1
  O  O2778  1  0.37791760  0.10151980  0.72542200  1
  O  O2779  1  0.37791760  0.10151980  0.92542200  1
  O  O2780  1  0.37791760  0.30151980  0.12542200  1
  O  O2781  1  0.37791760  0.30151980  0.32542200  1
  O  O2782  1  0.37791760  0.30151980  0.52542200  1
  O  O2783  1  0.37791760  0.30151980  0.72542200  1
  O  O2784  1  0.37791760  0.30151980  0.92542200  1
  O  O2785  1  0.37791760  0.50151980  0.12542200  1
  O  O2786  1  0.37791760  0.50151980  0.32542200  1
  O  O2787  1  0.37791760  0.50151980  0.52542200  1
  O  O2788  1  0.37791760  0.50151980  0.72542200  1
  O  O2789  1  0.37791760  0.50151980  0.92542200  1
  O  O2790  1  0.37791760  0.70151980  0.12542200  1
  O  O2791  1  0.37791760  0.70151980  0.32542200  1
  O  O2792  1  0.37791760  0.70151980  0.52542200  1
  O  O2793  1  0.37791760  0.70151980  0.72542200  1
  O  O2794  1  0.37791760  0.70151980  0.92542200  1
  O  O2795  1  0.37791760  0.90151980  0.12542200  1
  O  O2796  1  0.37791760  0.90151980  0.32542200  1
  O  O2797  1  0.37791760  0.90151980  0.52542200  1
  O  O2798  1  0.37791760  0.90151980  0.72542200  1
  O  O2799  1  0.37791760  0.90151980  0.92542200  1
  O  O2800  1  0.57791760  0.10151980  0.12542200  1
  O  O2801  1  0.57791760  0.10151980  0.32542200  1
  O  O2802  1  0.57791760  0.10151980  0.52542200  1
  O  O2803  1  0.57791760  0.10151980  0.72542200  1
  O  O2804  1  0.57791760  0.10151980  0.92542200  1
  O  O2805  1  0.57791760  0.30151980  0.12542200  1
  O  O2806  1  0.57791760  0.30151980  0.32542200  1
  O  O2807  1  0.57791760  0.30151980  0.52542200  1
  O  O2808  1  0.57791760  0.30151980  0.72542200  1
  O  O2809  1  0.57791760  0.30151980  0.92542200  1
  O  O2810  1  0.57791760  0.50151980  0.12542200  1
  O  O2811  1  0.57791760  0.50151980  0.32542200  1
  O  O2812  1  0.57791760  0.50151980  0.52542200  1
  O  O2813  1  0.57791760  0.50151980  0.72542200  1
  O  O2814  1  0.57791760  0.50151980  0.92542200  1
  O  O2815  1  0.57791760  0.70151980  0.12542200  1
  O  O2816  1  0.57791760  0.70151980  0.32542200  1
  O  O2817  1  0.57791760  0.70151980  0.52542200  1
  O  O2818  1  0.57791760  0.70151980  0.72542200  1
  O  O2819  1  0.57791760  0.70151980  0.92542200  1
  O  O2820  1  0.57791760  0.90151980  0.12542200  1
  O  O2821  1  0.57791760  0.90151980  0.32542200  1
  O  O2822  1  0.57791760  0.90151980  0.52542200  1
  O  O2823  1  0.57791760  0.90151980  0.72542200  1
  O  O2824  1  0.57791760  0.90151980  0.92542200  1
  O  O2825  1  0.77791760  0.10151980  0.12542200  1
  O  O2826  1  0.77791760  0.10151980  0.32542200  1
  O  O2827  1  0.77791760  0.10151980  0.52542200  1
  O  O2828  1  0.77791760  0.10151980  0.72542200  1
  O  O2829  1  0.77791760  0.10151980  0.92542200  1
  O  O2830  1  0.77791760  0.30151980  0.12542200  1
  O  O2831  1  0.77791760  0.30151980  0.32542200  1
  O  O2832  1  0.77791760  0.30151980  0.52542200  1
  O  O2833  1  0.77791760  0.30151980  0.72542200  1
  O  O2834  1  0.77791760  0.30151980  0.92542200  1
  O  O2835  1  0.77791760  0.50151980  0.12542200  1
  O  O2836  1  0.77791760  0.50151980  0.32542200  1
  O  O2837  1  0.77791760  0.50151980  0.52542200  1
  O  O2838  1  0.77791760  0.50151980  0.72542200  1
  O  O2839  1  0.77791760  0.50151980  0.92542200  1
  O  O2840  1  0.77791760  0.70151980  0.12542200  1
  O  O2841  1  0.77791760  0.70151980  0.32542200  1
  O  O2842  1  0.77791760  0.70151980  0.52542200  1
  O  O2843  1  0.77791760  0.70151980  0.72542200  1
  O  O2844  1  0.77791760  0.70151980  0.92542200  1
  O  O2845  1  0.77791760  0.90151980  0.12542200  1
  O  O2846  1  0.77791760  0.90151980  0.32542200  1
  O  O2847  1  0.77791760  0.90151980  0.52542200  1
  O  O2848  1  0.77791760  0.90151980  0.72542200  1
  O  O2849  1  0.77791760  0.90151980  0.92542200  1
  O  O2850  1  0.97791760  0.10151980  0.12542200  1
  O  O2851  1  0.97791760  0.10151980  0.32542200  1
  O  O2852  1  0.97791760  0.10151980  0.52542200  1
  O  O2853  1  0.97791760  0.10151980  0.72542200  1
  O  O2854  1  0.97791760  0.10151980  0.92542200  1
  O  O2855  1  0.97791760  0.30151980  0.12542200  1
  O  O2856  1  0.97791760  0.30151980  0.32542200  1
  O  O2857  1  0.97791760  0.30151980  0.52542200  1
  O  O2858  1  0.97791760  0.30151980  0.72542200  1
  O  O2859  1  0.97791760  0.30151980  0.92542200  1
  O  O2860  1  0.97791760  0.50151980  0.12542200  1
  O  O2861  1  0.97791760  0.50151980  0.32542200  1
  O  O2862  1  0.97791760  0.50151980  0.52542200  1
  O  O2863  1  0.97791760  0.50151980  0.72542200  1
  O  O2864  1  0.97791760  0.50151980  0.92542200  1
  O  O2865  1  0.97791760  0.70151980  0.12542200  1
  O  O2866  1  0.97791760  0.70151980  0.32542200  1
  O  O2867  1  0.97791760  0.70151980  0.52542200  1
  O  O2868  1  0.97791760  0.70151980  0.72542200  1
  O  O2869  1  0.97791760  0.70151980  0.92542200  1
  O  O2870  1  0.97791760  0.90151980  0.12542200  1
  O  O2871  1  0.97791760  0.90151980  0.32542200  1
  O  O2872  1  0.97791760  0.90151980  0.52542200  1
  O  O2873  1  0.97791760  0.90151980  0.72542200  1
  O  O2874  1  0.97791760  0.90151980  0.92542200  1
  O  O2875  1  0.06147060  0.08655340  0.14009620  1
  O  O2876  1  0.06147060  0.08655340  0.34009620  1
  O  O2877  1  0.06147060  0.08655340  0.54009620  1
  O  O2878  1  0.06147060  0.08655340  0.74009620  1
  O  O2879  1  0.06147060  0.08655340  0.94009620  1
  O  O2880  1  0.06147060  0.28655340  0.14009620  1
  O  O2881  1  0.06147060  0.28655340  0.34009620  1
  O  O2882  1  0.06147060  0.28655340  0.54009620  1
  O  O2883  1  0.06147060  0.28655340  0.74009620  1
  O  O2884  1  0.06147060  0.28655340  0.94009620  1
  O  O2885  1  0.06147060  0.48655340  0.14009620  1
  O  O2886  1  0.06147060  0.48655340  0.34009620  1
  O  O2887  1  0.06147060  0.48655340  0.54009620  1
  O  O2888  1  0.06147060  0.48655340  0.74009620  1
  O  O2889  1  0.06147060  0.48655340  0.94009620  1
  O  O2890  1  0.06147060  0.68655340  0.14009620  1
  O  O2891  1  0.06147060  0.68655340  0.34009620  1
  O  O2892  1  0.06147060  0.68655340  0.54009620  1
  O  O2893  1  0.06147060  0.68655340  0.74009620  1
  O  O2894  1  0.06147060  0.68655340  0.94009620  1
  O  O2895  1  0.06147060  0.88655340  0.14009620  1
  O  O2896  1  0.06147060  0.88655340  0.34009620  1
  O  O2897  1  0.06147060  0.88655340  0.54009620  1
  O  O2898  1  0.06147060  0.88655340  0.74009620  1
  O  O2899  1  0.06147060  0.88655340  0.94009620  1
  O  O2900  1  0.26147060  0.08655340  0.14009620  1
  O  O2901  1  0.26147060  0.08655340  0.34009620  1
  O  O2902  1  0.26147060  0.08655340  0.54009620  1
  O  O2903  1  0.26147060  0.08655340  0.74009620  1
  O  O2904  1  0.26147060  0.08655340  0.94009620  1
  O  O2905  1  0.26147060  0.28655340  0.14009620  1
  O  O2906  1  0.26147060  0.28655340  0.34009620  1
  O  O2907  1  0.26147060  0.28655340  0.54009620  1
  O  O2908  1  0.26147060  0.28655340  0.74009620  1
  O  O2909  1  0.26147060  0.28655340  0.94009620  1
  O  O2910  1  0.26147060  0.48655340  0.14009620  1
  O  O2911  1  0.26147060  0.48655340  0.34009620  1
  O  O2912  1  0.26147060  0.48655340  0.54009620  1
  O  O2913  1  0.26147060  0.48655340  0.74009620  1
  O  O2914  1  0.26147060  0.48655340  0.94009620  1
  O  O2915  1  0.26147060  0.68655340  0.14009620  1
  O  O2916  1  0.26147060  0.68655340  0.34009620  1
  O  O2917  1  0.26147060  0.68655340  0.54009620  1
  O  O2918  1  0.26147060  0.68655340  0.74009620  1
  O  O2919  1  0.26147060  0.68655340  0.94009620  1
  O  O2920  1  0.26147060  0.88655340  0.14009620  1
  O  O2921  1  0.26147060  0.88655340  0.34009620  1
  O  O2922  1  0.26147060  0.88655340  0.54009620  1
  O  O2923  1  0.26147060  0.88655340  0.74009620  1
  O  O2924  1  0.26147060  0.88655340  0.94009620  1
  O  O2925  1  0.46147060  0.08655340  0.14009620  1
  O  O2926  1  0.46147060  0.08655340  0.34009620  1
  O  O2927  1  0.46147060  0.08655340  0.54009620  1
  O  O2928  1  0.46147060  0.08655340  0.74009620  1
  O  O2929  1  0.46147060  0.08655340  0.94009620  1
  O  O2930  1  0.46147060  0.28655340  0.14009620  1
  O  O2931  1  0.46147060  0.28655340  0.34009620  1
  O  O2932  1  0.46147060  0.28655340  0.54009620  1
  O  O2933  1  0.46147060  0.28655340  0.74009620  1
  O  O2934  1  0.46147060  0.28655340  0.94009620  1
  O  O2935  1  0.46147060  0.48655340  0.14009620  1
  O  O2936  1  0.46147060  0.48655340  0.34009620  1
  O  O2937  1  0.46147060  0.48655340  0.54009620  1
  O  O2938  1  0.46147060  0.48655340  0.74009620  1
  O  O2939  1  0.46147060  0.48655340  0.94009620  1
  O  O2940  1  0.46147060  0.68655340  0.14009620  1
  O  O2941  1  0.46147060  0.68655340  0.34009620  1
  O  O2942  1  0.46147060  0.68655340  0.54009620  1
  O  O2943  1  0.46147060  0.68655340  0.74009620  1
  O  O2944  1  0.46147060  0.68655340  0.94009620  1
  O  O2945  1  0.46147060  0.88655340  0.14009620  1
  O  O2946  1  0.46147060  0.88655340  0.34009620  1
  O  O2947  1  0.46147060  0.88655340  0.54009620  1
  O  O2948  1  0.46147060  0.88655340  0.74009620  1
  O  O2949  1  0.46147060  0.88655340  0.94009620  1
  O  O2950  1  0.66147060  0.08655340  0.14009620  1
  O  O2951  1  0.66147060  0.08655340  0.34009620  1
  O  O2952  1  0.66147060  0.08655340  0.54009620  1
  O  O2953  1  0.66147060  0.08655340  0.74009620  1
  O  O2954  1  0.66147060  0.08655340  0.94009620  1
  O  O2955  1  0.66147060  0.28655340  0.14009620  1
  O  O2956  1  0.66147060  0.28655340  0.34009620  1
  O  O2957  1  0.66147060  0.28655340  0.54009620  1
  O  O2958  1  0.66147060  0.28655340  0.74009620  1
  O  O2959  1  0.66147060  0.28655340  0.94009620  1
  O  O2960  1  0.66147060  0.48655340  0.14009620  1
  O  O2961  1  0.66147060  0.48655340  0.34009620  1
  O  O2962  1  0.66147060  0.48655340  0.54009620  1
  O  O2963  1  0.66147060  0.48655340  0.74009620  1
  O  O2964  1  0.66147060  0.48655340  0.94009620  1
  O  O2965  1  0.66147060  0.68655340  0.14009620  1
  O  O2966  1  0.66147060  0.68655340  0.34009620  1
  O  O2967  1  0.66147060  0.68655340  0.54009620  1
  O  O2968  1  0.66147060  0.68655340  0.74009620  1
  O  O2969  1  0.66147060  0.68655340  0.94009620  1
  O  O2970  1  0.66147060  0.88655340  0.14009620  1
  O  O2971  1  0.66147060  0.88655340  0.34009620  1
  O  O2972  1  0.66147060  0.88655340  0.54009620  1
  O  O2973  1  0.66147060  0.88655340  0.74009620  1
  O  O2974  1  0.66147060  0.88655340  0.94009620  1
  O  O2975  1  0.86147060  0.08655340  0.14009620  1
  O  O2976  1  0.86147060  0.08655340  0.34009620  1
  O  O2977  1  0.86147060  0.08655340  0.54009620  1
  O  O2978  1  0.86147060  0.08655340  0.74009620  1
  O  O2979  1  0.86147060  0.08655340  0.94009620  1
  O  O2980  1  0.86147060  0.28655340  0.14009620  1
  O  O2981  1  0.86147060  0.28655340  0.34009620  1
  O  O2982  1  0.86147060  0.28655340  0.54009620  1
  O  O2983  1  0.86147060  0.28655340  0.74009620  1
  O  O2984  1  0.86147060  0.28655340  0.94009620  1
  O  O2985  1  0.86147060  0.48655340  0.14009620  1
  O  O2986  1  0.86147060  0.48655340  0.34009620  1
  O  O2987  1  0.86147060  0.48655340  0.54009620  1
  O  O2988  1  0.86147060  0.48655340  0.74009620  1
  O  O2989  1  0.86147060  0.48655340  0.94009620  1
  O  O2990  1  0.86147060  0.68655340  0.14009620  1
  O  O2991  1  0.86147060  0.68655340  0.34009620  1
  O  O2992  1  0.86147060  0.68655340  0.54009620  1
  O  O2993  1  0.86147060  0.68655340  0.74009620  1
  O  O2994  1  0.86147060  0.68655340  0.94009620  1
  O  O2995  1  0.86147060  0.88655340  0.14009620  1
  O  O2996  1  0.86147060  0.88655340  0.34009620  1
  O  O2997  1  0.86147060  0.88655340  0.54009620  1
  O  O2998  1  0.86147060  0.88655340  0.74009620  1
  O  O2999  1  0.86147060  0.88655340  0.94009620  1
  O  O3000  1  0.00172480  0.16204360  0.09193640  1
  O  O3001  1  0.00172480  0.16204360  0.29193640  1
  O  O3002  1  0.00172480  0.16204360  0.49193640  1
  O  O3003  1  0.00172480  0.16204360  0.69193640  1
  O  O3004  1  0.00172480  0.16204360  0.89193640  1
  O  O3005  1  0.00172480  0.36204360  0.09193640  1
  O  O3006  1  0.00172480  0.36204360  0.29193640  1
  O  O3007  1  0.00172480  0.36204360  0.49193640  1
  O  O3008  1  0.00172480  0.36204360  0.69193640  1
  O  O3009  1  0.00172480  0.36204360  0.89193640  1
  O  O3010  1  0.00172480  0.56204360  0.09193640  1
  O  O3011  1  0.00172480  0.56204360  0.29193640  1
  O  O3012  1  0.00172480  0.56204360  0.49193640  1
  O  O3013  1  0.00172480  0.56204360  0.69193640  1
  O  O3014  1  0.00172480  0.56204360  0.89193640  1
  O  O3015  1  0.00172480  0.76204360  0.09193640  1
  O  O3016  1  0.00172480  0.76204360  0.29193640  1
  O  O3017  1  0.00172480  0.76204360  0.49193640  1
  O  O3018  1  0.00172480  0.76204360  0.69193640  1
  O  O3019  1  0.00172480  0.76204360  0.89193640  1
  O  O3020  1  0.00172480  0.96204360  0.09193640  1
  O  O3021  1  0.00172480  0.96204360  0.29193640  1
  O  O3022  1  0.00172480  0.96204360  0.49193640  1
  O  O3023  1  0.00172480  0.96204360  0.69193640  1
  O  O3024  1  0.00172480  0.96204360  0.89193640  1
  O  O3025  1  0.20172480  0.16204360  0.09193640  1
  O  O3026  1  0.20172480  0.16204360  0.29193640  1
  O  O3027  1  0.20172480  0.16204360  0.49193640  1
  O  O3028  1  0.20172480  0.16204360  0.69193640  1
  O  O3029  1  0.20172480  0.16204360  0.89193640  1
  O  O3030  1  0.20172480  0.36204360  0.09193640  1
  O  O3031  1  0.20172480  0.36204360  0.29193640  1
  O  O3032  1  0.20172480  0.36204360  0.49193640  1
  O  O3033  1  0.20172480  0.36204360  0.69193640  1
  O  O3034  1  0.20172480  0.36204360  0.89193640  1
  O  O3035  1  0.20172480  0.56204360  0.09193640  1
  O  O3036  1  0.20172480  0.56204360  0.29193640  1
  O  O3037  1  0.20172480  0.56204360  0.49193640  1
  O  O3038  1  0.20172480  0.56204360  0.69193640  1
  O  O3039  1  0.20172480  0.56204360  0.89193640  1
  O  O3040  1  0.20172480  0.76204360  0.09193640  1
  O  O3041  1  0.20172480  0.76204360  0.29193640  1
  O  O3042  1  0.20172480  0.76204360  0.49193640  1
  O  O3043  1  0.20172480  0.76204360  0.69193640  1
  O  O3044  1  0.20172480  0.76204360  0.89193640  1
  O  O3045  1  0.20172480  0.96204360  0.09193640  1
  O  O3046  1  0.20172480  0.96204360  0.29193640  1
  O  O3047  1  0.20172480  0.96204360  0.49193640  1
  O  O3048  1  0.20172480  0.96204360  0.69193640  1
  O  O3049  1  0.20172480  0.96204360  0.89193640  1
  O  O3050  1  0.40172480  0.16204360  0.09193640  1
  O  O3051  1  0.40172480  0.16204360  0.29193640  1
  O  O3052  1  0.40172480  0.16204360  0.49193640  1
  O  O3053  1  0.40172480  0.16204360  0.69193640  1
  O  O3054  1  0.40172480  0.16204360  0.89193640  1
  O  O3055  1  0.40172480  0.36204360  0.09193640  1
  O  O3056  1  0.40172480  0.36204360  0.29193640  1
  O  O3057  1  0.40172480  0.36204360  0.49193640  1
  O  O3058  1  0.40172480  0.36204360  0.69193640  1
  O  O3059  1  0.40172480  0.36204360  0.89193640  1
  O  O3060  1  0.40172480  0.56204360  0.09193640  1
  O  O3061  1  0.40172480  0.56204360  0.29193640  1
  O  O3062  1  0.40172480  0.56204360  0.49193640  1
  O  O3063  1  0.40172480  0.56204360  0.69193640  1
  O  O3064  1  0.40172480  0.56204360  0.89193640  1
  O  O3065  1  0.40172480  0.76204360  0.09193640  1
  O  O3066  1  0.40172480  0.76204360  0.29193640  1
  O  O3067  1  0.40172480  0.76204360  0.49193640  1
  O  O3068  1  0.40172480  0.76204360  0.69193640  1
  O  O3069  1  0.40172480  0.76204360  0.89193640  1
  O  O3070  1  0.40172480  0.96204360  0.09193640  1
  O  O3071  1  0.40172480  0.96204360  0.29193640  1
  O  O3072  1  0.40172480  0.96204360  0.49193640  1
  O  O3073  1  0.40172480  0.96204360  0.69193640  1
  O  O3074  1  0.40172480  0.96204360  0.89193640  1
  O  O3075  1  0.60172480  0.16204360  0.09193640  1
  O  O3076  1  0.60172480  0.16204360  0.29193640  1
  O  O3077  1  0.60172480  0.16204360  0.49193640  1
  O  O3078  1  0.60172480  0.16204360  0.69193640  1
  O  O3079  1  0.60172480  0.16204360  0.89193640  1
  O  O3080  1  0.60172480  0.36204360  0.09193640  1
  O  O3081  1  0.60172480  0.36204360  0.29193640  1
  O  O3082  1  0.60172480  0.36204360  0.49193640  1
  O  O3083  1  0.60172480  0.36204360  0.69193640  1
  O  O3084  1  0.60172480  0.36204360  0.89193640  1
  O  O3085  1  0.60172480  0.56204360  0.09193640  1
  O  O3086  1  0.60172480  0.56204360  0.29193640  1
  O  O3087  1  0.60172480  0.56204360  0.49193640  1
  O  O3088  1  0.60172480  0.56204360  0.69193640  1
  O  O3089  1  0.60172480  0.56204360  0.89193640  1
  O  O3090  1  0.60172480  0.76204360  0.09193640  1
  O  O3091  1  0.60172480  0.76204360  0.29193640  1
  O  O3092  1  0.60172480  0.76204360  0.49193640  1
  O  O3093  1  0.60172480  0.76204360  0.69193640  1
  O  O3094  1  0.60172480  0.76204360  0.89193640  1
  O  O3095  1  0.60172480  0.96204360  0.09193640  1
  O  O3096  1  0.60172480  0.96204360  0.29193640  1
  O  O3097  1  0.60172480  0.96204360  0.49193640  1
  O  O3098  1  0.60172480  0.96204360  0.69193640  1
  O  O3099  1  0.60172480  0.96204360  0.89193640  1
  O  O3100  1  0.80172480  0.16204360  0.09193640  1
  O  O3101  1  0.80172480  0.16204360  0.29193640  1
  O  O3102  1  0.80172480  0.16204360  0.49193640  1
  O  O3103  1  0.80172480  0.16204360  0.69193640  1
  O  O3104  1  0.80172480  0.16204360  0.89193640  1
  O  O3105  1  0.80172480  0.36204360  0.09193640  1
  O  O3106  1  0.80172480  0.36204360  0.29193640  1
  O  O3107  1  0.80172480  0.36204360  0.49193640  1
  O  O3108  1  0.80172480  0.36204360  0.69193640  1
  O  O3109  1  0.80172480  0.36204360  0.89193640  1
  O  O3110  1  0.80172480  0.56204360  0.09193640  1
  O  O3111  1  0.80172480  0.56204360  0.29193640  1
  O  O3112  1  0.80172480  0.56204360  0.49193640  1
  O  O3113  1  0.80172480  0.56204360  0.69193640  1
  O  O3114  1  0.80172480  0.56204360  0.89193640  1
  O  O3115  1  0.80172480  0.76204360  0.09193640  1
  O  O3116  1  0.80172480  0.76204360  0.29193640  1
  O  O3117  1  0.80172480  0.76204360  0.49193640  1
  O  O3118  1  0.80172480  0.76204360  0.69193640  1
  O  O3119  1  0.80172480  0.76204360  0.89193640  1
  O  O3120  1  0.80172480  0.96204360  0.09193640  1
  O  O3121  1  0.80172480  0.96204360  0.29193640  1
  O  O3122  1  0.80172480  0.96204360  0.49193640  1
  O  O3123  1  0.80172480  0.96204360  0.69193640  1
  O  O3124  1  0.80172480  0.96204360  0.89193640  1
  O  O3125  1  0.13852940  0.11344660  0.05990380  1
  O  O3126  1  0.13852940  0.11344660  0.25990380  1
  O  O3127  1  0.13852940  0.11344660  0.45990380  1
  O  O3128  1  0.13852940  0.11344660  0.65990380  1
  O  O3129  1  0.13852940  0.11344660  0.85990380  1
  O  O3130  1  0.13852940  0.31344660  0.05990380  1
  O  O3131  1  0.13852940  0.31344660  0.25990380  1
  O  O3132  1  0.13852940  0.31344660  0.45990380  1
  O  O3133  1  0.13852940  0.31344660  0.65990380  1
  O  O3134  1  0.13852940  0.31344660  0.85990380  1
  O  O3135  1  0.13852940  0.51344660  0.05990380  1
  O  O3136  1  0.13852940  0.51344660  0.25990380  1
  O  O3137  1  0.13852940  0.51344660  0.45990380  1
  O  O3138  1  0.13852940  0.51344660  0.65990380  1
  O  O3139  1  0.13852940  0.51344660  0.85990380  1
  O  O3140  1  0.13852940  0.71344660  0.05990380  1
  O  O3141  1  0.13852940  0.71344660  0.25990380  1
  O  O3142  1  0.13852940  0.71344660  0.45990380  1
  O  O3143  1  0.13852940  0.71344660  0.65990380  1
  O  O3144  1  0.13852940  0.71344660  0.85990380  1
  O  O3145  1  0.13852940  0.91344660  0.05990380  1
  O  O3146  1  0.13852940  0.91344660  0.25990380  1
  O  O3147  1  0.13852940  0.91344660  0.45990380  1
  O  O3148  1  0.13852940  0.91344660  0.65990380  1
  O  O3149  1  0.13852940  0.91344660  0.85990380  1
  O  O3150  1  0.33852940  0.11344660  0.05990380  1
  O  O3151  1  0.33852940  0.11344660  0.25990380  1
  O  O3152  1  0.33852940  0.11344660  0.45990380  1
  O  O3153  1  0.33852940  0.11344660  0.65990380  1
  O  O3154  1  0.33852940  0.11344660  0.85990380  1
  O  O3155  1  0.33852940  0.31344660  0.05990380  1
  O  O3156  1  0.33852940  0.31344660  0.25990380  1
  O  O3157  1  0.33852940  0.31344660  0.45990380  1
  O  O3158  1  0.33852940  0.31344660  0.65990380  1
  O  O3159  1  0.33852940  0.31344660  0.85990380  1
  O  O3160  1  0.33852940  0.51344660  0.05990380  1
  O  O3161  1  0.33852940  0.51344660  0.25990380  1
  O  O3162  1  0.33852940  0.51344660  0.45990380  1
  O  O3163  1  0.33852940  0.51344660  0.65990380  1
  O  O3164  1  0.33852940  0.51344660  0.85990380  1
  O  O3165  1  0.33852940  0.71344660  0.05990380  1
  O  O3166  1  0.33852940  0.71344660  0.25990380  1
  O  O3167  1  0.33852940  0.71344660  0.45990380  1
  O  O3168  1  0.33852940  0.71344660  0.65990380  1
  O  O3169  1  0.33852940  0.71344660  0.85990380  1
  O  O3170  1  0.33852940  0.91344660  0.05990380  1
  O  O3171  1  0.33852940  0.91344660  0.25990380  1
  O  O3172  1  0.33852940  0.91344660  0.45990380  1
  O  O3173  1  0.33852940  0.91344660  0.65990380  1
  O  O3174  1  0.33852940  0.91344660  0.85990380  1
  O  O3175  1  0.53852940  0.11344660  0.05990380  1
  O  O3176  1  0.53852940  0.11344660  0.25990380  1
  O  O3177  1  0.53852940  0.11344660  0.45990380  1
  O  O3178  1  0.53852940  0.11344660  0.65990380  1
  O  O3179  1  0.53852940  0.11344660  0.85990380  1
  O  O3180  1  0.53852940  0.31344660  0.05990380  1
  O  O3181  1  0.53852940  0.31344660  0.25990380  1
  O  O3182  1  0.53852940  0.31344660  0.45990380  1
  O  O3183  1  0.53852940  0.31344660  0.65990380  1
  O  O3184  1  0.53852940  0.31344660  0.85990380  1
  O  O3185  1  0.53852940  0.51344660  0.05990380  1
  O  O3186  1  0.53852940  0.51344660  0.25990380  1
  O  O3187  1  0.53852940  0.51344660  0.45990380  1
  O  O3188  1  0.53852940  0.51344660  0.65990380  1
  O  O3189  1  0.53852940  0.51344660  0.85990380  1
  O  O3190  1  0.53852940  0.71344660  0.05990380  1
  O  O3191  1  0.53852940  0.71344660  0.25990380  1
  O  O3192  1  0.53852940  0.71344660  0.45990380  1
  O  O3193  1  0.53852940  0.71344660  0.65990380  1
  O  O3194  1  0.53852940  0.71344660  0.85990380  1
  O  O3195  1  0.53852940  0.91344660  0.05990380  1
  O  O3196  1  0.53852940  0.91344660  0.25990380  1
  O  O3197  1  0.53852940  0.91344660  0.45990380  1
  O  O3198  1  0.53852940  0.91344660  0.65990380  1
  O  O3199  1  0.53852940  0.91344660  0.85990380  1
  O  O3200  1  0.73852940  0.11344660  0.05990380  1
  O  O3201  1  0.73852940  0.11344660  0.25990380  1
  O  O3202  1  0.73852940  0.11344660  0.45990380  1
  O  O3203  1  0.73852940  0.11344660  0.65990380  1
  O  O3204  1  0.73852940  0.11344660  0.85990380  1
  O  O3205  1  0.73852940  0.31344660  0.05990380  1
  O  O3206  1  0.73852940  0.31344660  0.25990380  1
  O  O3207  1  0.73852940  0.31344660  0.45990380  1
  O  O3208  1  0.73852940  0.31344660  0.65990380  1
  O  O3209  1  0.73852940  0.31344660  0.85990380  1
  O  O3210  1  0.73852940  0.51344660  0.05990380  1
  O  O3211  1  0.73852940  0.51344660  0.25990380  1
  O  O3212  1  0.73852940  0.51344660  0.45990380  1
  O  O3213  1  0.73852940  0.51344660  0.65990380  1
  O  O3214  1  0.73852940  0.51344660  0.85990380  1
  O  O3215  1  0.73852940  0.71344660  0.05990380  1
  O  O3216  1  0.73852940  0.71344660  0.25990380  1
  O  O3217  1  0.73852940  0.71344660  0.45990380  1
  O  O3218  1  0.73852940  0.71344660  0.65990380  1
  O  O3219  1  0.73852940  0.71344660  0.85990380  1
  O  O3220  1  0.73852940  0.91344660  0.05990380  1
  O  O3221  1  0.73852940  0.91344660  0.25990380  1
  O  O3222  1  0.73852940  0.91344660  0.45990380  1
  O  O3223  1  0.73852940  0.91344660  0.65990380  1
  O  O3224  1  0.73852940  0.91344660  0.85990380  1
  O  O3225  1  0.93852940  0.11344660  0.05990380  1
  O  O3226  1  0.93852940  0.11344660  0.25990380  1
  O  O3227  1  0.93852940  0.11344660  0.45990380  1
  O  O3228  1  0.93852940  0.11344660  0.65990380  1
  O  O3229  1  0.93852940  0.11344660  0.85990380  1
  O  O3230  1  0.93852940  0.31344660  0.05990380  1
  O  O3231  1  0.93852940  0.31344660  0.25990380  1
  O  O3232  1  0.93852940  0.31344660  0.45990380  1
  O  O3233  1  0.93852940  0.31344660  0.65990380  1
  O  O3234  1  0.93852940  0.31344660  0.85990380  1
  O  O3235  1  0.93852940  0.51344660  0.05990380  1
  O  O3236  1  0.93852940  0.51344660  0.25990380  1
  O  O3237  1  0.93852940  0.51344660  0.45990380  1
  O  O3238  1  0.93852940  0.51344660  0.65990380  1
  O  O3239  1  0.93852940  0.51344660  0.85990380  1
  O  O3240  1  0.93852940  0.71344660  0.05990380  1
  O  O3241  1  0.93852940  0.71344660  0.25990380  1
  O  O3242  1  0.93852940  0.71344660  0.45990380  1
  O  O3243  1  0.93852940  0.71344660  0.65990380  1
  O  O3244  1  0.93852940  0.71344660  0.85990380  1
  O  O3245  1  0.93852940  0.91344660  0.05990380  1
  O  O3246  1  0.93852940  0.91344660  0.25990380  1
  O  O3247  1  0.93852940  0.91344660  0.45990380  1
  O  O3248  1  0.93852940  0.91344660  0.65990380  1
  O  O3249  1  0.93852940  0.91344660  0.85990380  1
  O  O3250  1  0.04487400  0.18940080  0.14232740  1
  O  O3251  1  0.04487400  0.18940080  0.34232740  1
  O  O3252  1  0.04487400  0.18940080  0.54232740  1
  O  O3253  1  0.04487400  0.18940080  0.74232740  1
  O  O3254  1  0.04487400  0.18940080  0.94232740  1
  O  O3255  1  0.04487400  0.38940080  0.14232740  1
  O  O3256  1  0.04487400  0.38940080  0.34232740  1
  O  O3257  1  0.04487400  0.38940080  0.54232740  1
  O  O3258  1  0.04487400  0.38940080  0.74232740  1
  O  O3259  1  0.04487400  0.38940080  0.94232740  1
  O  O3260  1  0.04487400  0.58940080  0.14232740  1
  O  O3261  1  0.04487400  0.58940080  0.34232740  1
  O  O3262  1  0.04487400  0.58940080  0.54232740  1
  O  O3263  1  0.04487400  0.58940080  0.74232740  1
  O  O3264  1  0.04487400  0.58940080  0.94232740  1
  O  O3265  1  0.04487400  0.78940080  0.14232740  1
  O  O3266  1  0.04487400  0.78940080  0.34232740  1
  O  O3267  1  0.04487400  0.78940080  0.54232740  1
  O  O3268  1  0.04487400  0.78940080  0.74232740  1
  O  O3269  1  0.04487400  0.78940080  0.94232740  1
  O  O3270  1  0.04487400  0.98940080  0.14232740  1
  O  O3271  1  0.04487400  0.98940080  0.34232740  1
  O  O3272  1  0.04487400  0.98940080  0.54232740  1
  O  O3273  1  0.04487400  0.98940080  0.74232740  1
  O  O3274  1  0.04487400  0.98940080  0.94232740  1
  O  O3275  1  0.24487400  0.18940080  0.14232740  1
  O  O3276  1  0.24487400  0.18940080  0.34232740  1
  O  O3277  1  0.24487400  0.18940080  0.54232740  1
  O  O3278  1  0.24487400  0.18940080  0.74232740  1
  O  O3279  1  0.24487400  0.18940080  0.94232740  1
  O  O3280  1  0.24487400  0.38940080  0.14232740  1
  O  O3281  1  0.24487400  0.38940080  0.34232740  1
  O  O3282  1  0.24487400  0.38940080  0.54232740  1
  O  O3283  1  0.24487400  0.38940080  0.74232740  1
  O  O3284  1  0.24487400  0.38940080  0.94232740  1
  O  O3285  1  0.24487400  0.58940080  0.14232740  1
  O  O3286  1  0.24487400  0.58940080  0.34232740  1
  O  O3287  1  0.24487400  0.58940080  0.54232740  1
  O  O3288  1  0.24487400  0.58940080  0.74232740  1
  O  O3289  1  0.24487400  0.58940080  0.94232740  1
  O  O3290  1  0.24487400  0.78940080  0.14232740  1
  O  O3291  1  0.24487400  0.78940080  0.34232740  1
  O  O3292  1  0.24487400  0.78940080  0.54232740  1
  O  O3293  1  0.24487400  0.78940080  0.74232740  1
  O  O3294  1  0.24487400  0.78940080  0.94232740  1
  O  O3295  1  0.24487400  0.98940080  0.14232740  1
  O  O3296  1  0.24487400  0.98940080  0.34232740  1
  O  O3297  1  0.24487400  0.98940080  0.54232740  1
  O  O3298  1  0.24487400  0.98940080  0.74232740  1
  O  O3299  1  0.24487400  0.98940080  0.94232740  1
  O  O3300  1  0.44487400  0.18940080  0.14232740  1
  O  O3301  1  0.44487400  0.18940080  0.34232740  1
  O  O3302  1  0.44487400  0.18940080  0.54232740  1
  O  O3303  1  0.44487400  0.18940080  0.74232740  1
  O  O3304  1  0.44487400  0.18940080  0.94232740  1
  O  O3305  1  0.44487400  0.38940080  0.14232740  1
  O  O3306  1  0.44487400  0.38940080  0.34232740  1
  O  O3307  1  0.44487400  0.38940080  0.54232740  1
  O  O3308  1  0.44487400  0.38940080  0.74232740  1
  O  O3309  1  0.44487400  0.38940080  0.94232740  1
  O  O3310  1  0.44487400  0.58940080  0.14232740  1
  O  O3311  1  0.44487400  0.58940080  0.34232740  1
  O  O3312  1  0.44487400  0.58940080  0.54232740  1
  O  O3313  1  0.44487400  0.58940080  0.74232740  1
  O  O3314  1  0.44487400  0.58940080  0.94232740  1
  O  O3315  1  0.44487400  0.78940080  0.14232740  1
  O  O3316  1  0.44487400  0.78940080  0.34232740  1
  O  O3317  1  0.44487400  0.78940080  0.54232740  1
  O  O3318  1  0.44487400  0.78940080  0.74232740  1
  O  O3319  1  0.44487400  0.78940080  0.94232740  1
  O  O3320  1  0.44487400  0.98940080  0.14232740  1
  O  O3321  1  0.44487400  0.98940080  0.34232740  1
  O  O3322  1  0.44487400  0.98940080  0.54232740  1
  O  O3323  1  0.44487400  0.98940080  0.74232740  1
  O  O3324  1  0.44487400  0.98940080  0.94232740  1
  O  O3325  1  0.64487400  0.18940080  0.14232740  1
  O  O3326  1  0.64487400  0.18940080  0.34232740  1
  O  O3327  1  0.64487400  0.18940080  0.54232740  1
  O  O3328  1  0.64487400  0.18940080  0.74232740  1
  O  O3329  1  0.64487400  0.18940080  0.94232740  1
  O  O3330  1  0.64487400  0.38940080  0.14232740  1
  O  O3331  1  0.64487400  0.38940080  0.34232740  1
  O  O3332  1  0.64487400  0.38940080  0.54232740  1
  O  O3333  1  0.64487400  0.38940080  0.74232740  1
  O  O3334  1  0.64487400  0.38940080  0.94232740  1
  O  O3335  1  0.64487400  0.58940080  0.14232740  1
  O  O3336  1  0.64487400  0.58940080  0.34232740  1
  O  O3337  1  0.64487400  0.58940080  0.54232740  1
  O  O3338  1  0.64487400  0.58940080  0.74232740  1
  O  O3339  1  0.64487400  0.58940080  0.94232740  1
  O  O3340  1  0.64487400  0.78940080  0.14232740  1
  O  O3341  1  0.64487400  0.78940080  0.34232740  1
  O  O3342  1  0.64487400  0.78940080  0.54232740  1
  O  O3343  1  0.64487400  0.78940080  0.74232740  1
  O  O3344  1  0.64487400  0.78940080  0.94232740  1
  O  O3345  1  0.64487400  0.98940080  0.14232740  1
  O  O3346  1  0.64487400  0.98940080  0.34232740  1
  O  O3347  1  0.64487400  0.98940080  0.54232740  1
  O  O3348  1  0.64487400  0.98940080  0.74232740  1
  O  O3349  1  0.64487400  0.98940080  0.94232740  1
  O  O3350  1  0.84487400  0.18940080  0.14232740  1
  O  O3351  1  0.84487400  0.18940080  0.34232740  1
  O  O3352  1  0.84487400  0.18940080  0.54232740  1
  O  O3353  1  0.84487400  0.18940080  0.74232740  1
  O  O3354  1  0.84487400  0.18940080  0.94232740  1
  O  O3355  1  0.84487400  0.38940080  0.14232740  1
  O  O3356  1  0.84487400  0.38940080  0.34232740  1
  O  O3357  1  0.84487400  0.38940080  0.54232740  1
  O  O3358  1  0.84487400  0.38940080  0.74232740  1
  O  O3359  1  0.84487400  0.38940080  0.94232740  1
  O  O3360  1  0.84487400  0.58940080  0.14232740  1
  O  O3361  1  0.84487400  0.58940080  0.34232740  1
  O  O3362  1  0.84487400  0.58940080  0.54232740  1
  O  O3363  1  0.84487400  0.58940080  0.74232740  1
  O  O3364  1  0.84487400  0.58940080  0.94232740  1
  O  O3365  1  0.84487400  0.78940080  0.14232740  1
  O  O3366  1  0.84487400  0.78940080  0.34232740  1
  O  O3367  1  0.84487400  0.78940080  0.54232740  1
  O  O3368  1  0.84487400  0.78940080  0.74232740  1
  O  O3369  1  0.84487400  0.78940080  0.94232740  1
  O  O3370  1  0.84487400  0.98940080  0.14232740  1
  O  O3371  1  0.84487400  0.98940080  0.34232740  1
  O  O3372  1  0.84487400  0.98940080  0.54232740  1
  O  O3373  1  0.84487400  0.98940080  0.74232740  1
  O  O3374  1  0.84487400  0.98940080  0.94232740  1
  O  O3375  1  0.10905040  0.15091120  0.11099020  1
  O  O3376  1  0.10905040  0.15091120  0.31099020  1
  O  O3377  1  0.10905040  0.15091120  0.51099020  1
  O  O3378  1  0.10905040  0.15091120  0.71099020  1
  O  O3379  1  0.10905040  0.15091120  0.91099020  1
  O  O3380  1  0.10905040  0.35091120  0.11099020  1
  O  O3381  1  0.10905040  0.35091120  0.31099020  1
  O  O3382  1  0.10905040  0.35091120  0.51099020  1
  O  O3383  1  0.10905040  0.35091120  0.71099020  1
  O  O3384  1  0.10905040  0.35091120  0.91099020  1
  O  O3385  1  0.10905040  0.55091120  0.11099020  1
  O  O3386  1  0.10905040  0.55091120  0.31099020  1
  O  O3387  1  0.10905040  0.55091120  0.51099020  1
  O  O3388  1  0.10905040  0.55091120  0.71099020  1
  O  O3389  1  0.10905040  0.55091120  0.91099020  1
  O  O3390  1  0.10905040  0.75091120  0.11099020  1
  O  O3391  1  0.10905040  0.75091120  0.31099020  1
  O  O3392  1  0.10905040  0.75091120  0.51099020  1
  O  O3393  1  0.10905040  0.75091120  0.71099020  1
  O  O3394  1  0.10905040  0.75091120  0.91099020  1
  O  O3395  1  0.10905040  0.95091120  0.11099020  1
  O  O3396  1  0.10905040  0.95091120  0.31099020  1
  O  O3397  1  0.10905040  0.95091120  0.51099020  1
  O  O3398  1  0.10905040  0.95091120  0.71099020  1
  O  O3399  1  0.10905040  0.95091120  0.91099020  1
  O  O3400  1  0.30905040  0.15091120  0.11099020  1
  O  O3401  1  0.30905040  0.15091120  0.31099020  1
  O  O3402  1  0.30905040  0.15091120  0.51099020  1
  O  O3403  1  0.30905040  0.15091120  0.71099020  1
  O  O3404  1  0.30905040  0.15091120  0.91099020  1
  O  O3405  1  0.30905040  0.35091120  0.11099020  1
  O  O3406  1  0.30905040  0.35091120  0.31099020  1
  O  O3407  1  0.30905040  0.35091120  0.51099020  1
  O  O3408  1  0.30905040  0.35091120  0.71099020  1
  O  O3409  1  0.30905040  0.35091120  0.91099020  1
  O  O3410  1  0.30905040  0.55091120  0.11099020  1
  O  O3411  1  0.30905040  0.55091120  0.31099020  1
  O  O3412  1  0.30905040  0.55091120  0.51099020  1
  O  O3413  1  0.30905040  0.55091120  0.71099020  1
  O  O3414  1  0.30905040  0.55091120  0.91099020  1
  O  O3415  1  0.30905040  0.75091120  0.11099020  1
  O  O3416  1  0.30905040  0.75091120  0.31099020  1
  O  O3417  1  0.30905040  0.75091120  0.51099020  1
  O  O3418  1  0.30905040  0.75091120  0.71099020  1
  O  O3419  1  0.30905040  0.75091120  0.91099020  1
  O  O3420  1  0.30905040  0.95091120  0.11099020  1
  O  O3421  1  0.30905040  0.95091120  0.31099020  1
  O  O3422  1  0.30905040  0.95091120  0.51099020  1
  O  O3423  1  0.30905040  0.95091120  0.71099020  1
  O  O3424  1  0.30905040  0.95091120  0.91099020  1
  O  O3425  1  0.50905040  0.15091120  0.11099020  1
  O  O3426  1  0.50905040  0.15091120  0.31099020  1
  O  O3427  1  0.50905040  0.15091120  0.51099020  1
  O  O3428  1  0.50905040  0.15091120  0.71099020  1
  O  O3429  1  0.50905040  0.15091120  0.91099020  1
  O  O3430  1  0.50905040  0.35091120  0.11099020  1
  O  O3431  1  0.50905040  0.35091120  0.31099020  1
  O  O3432  1  0.50905040  0.35091120  0.51099020  1
  O  O3433  1  0.50905040  0.35091120  0.71099020  1
  O  O3434  1  0.50905040  0.35091120  0.91099020  1
  O  O3435  1  0.50905040  0.55091120  0.11099020  1
  O  O3436  1  0.50905040  0.55091120  0.31099020  1
  O  O3437  1  0.50905040  0.55091120  0.51099020  1
  O  O3438  1  0.50905040  0.55091120  0.71099020  1
  O  O3439  1  0.50905040  0.55091120  0.91099020  1
  O  O3440  1  0.50905040  0.75091120  0.11099020  1
  O  O3441  1  0.50905040  0.75091120  0.31099020  1
  O  O3442  1  0.50905040  0.75091120  0.51099020  1
  O  O3443  1  0.50905040  0.75091120  0.71099020  1
  O  O3444  1  0.50905040  0.75091120  0.91099020  1
  O  O3445  1  0.50905040  0.95091120  0.11099020  1
  O  O3446  1  0.50905040  0.95091120  0.31099020  1
  O  O3447  1  0.50905040  0.95091120  0.51099020  1
  O  O3448  1  0.50905040  0.95091120  0.71099020  1
  O  O3449  1  0.50905040  0.95091120  0.91099020  1
  O  O3450  1  0.70905040  0.15091120  0.11099020  1
  O  O3451  1  0.70905040  0.15091120  0.31099020  1
  O  O3452  1  0.70905040  0.15091120  0.51099020  1
  O  O3453  1  0.70905040  0.15091120  0.71099020  1
  O  O3454  1  0.70905040  0.15091120  0.91099020  1
  O  O3455  1  0.70905040  0.35091120  0.11099020  1
  O  O3456  1  0.70905040  0.35091120  0.31099020  1
  O  O3457  1  0.70905040  0.35091120  0.51099020  1
  O  O3458  1  0.70905040  0.35091120  0.71099020  1
  O  O3459  1  0.70905040  0.35091120  0.91099020  1
  O  O3460  1  0.70905040  0.55091120  0.11099020  1
  O  O3461  1  0.70905040  0.55091120  0.31099020  1
  O  O3462  1  0.70905040  0.55091120  0.51099020  1
  O  O3463  1  0.70905040  0.55091120  0.71099020  1
  O  O3464  1  0.70905040  0.55091120  0.91099020  1
  O  O3465  1  0.70905040  0.75091120  0.11099020  1
  O  O3466  1  0.70905040  0.75091120  0.31099020  1
  O  O3467  1  0.70905040  0.75091120  0.51099020  1
  O  O3468  1  0.70905040  0.75091120  0.71099020  1
  O  O3469  1  0.70905040  0.75091120  0.91099020  1
  O  O3470  1  0.70905040  0.95091120  0.11099020  1
  O  O3471  1  0.70905040  0.95091120  0.31099020  1
  O  O3472  1  0.70905040  0.95091120  0.51099020  1
  O  O3473  1  0.70905040  0.95091120  0.71099020  1
  O  O3474  1  0.70905040  0.95091120  0.91099020  1
  O  O3475  1  0.90905040  0.15091120  0.11099020  1
  O  O3476  1  0.90905040  0.15091120  0.31099020  1
  O  O3477  1  0.90905040  0.15091120  0.51099020  1
  O  O3478  1  0.90905040  0.15091120  0.71099020  1
  O  O3479  1  0.90905040  0.15091120  0.91099020  1
  O  O3480  1  0.90905040  0.35091120  0.11099020  1
  O  O3481  1  0.90905040  0.35091120  0.31099020  1
  O  O3482  1  0.90905040  0.35091120  0.51099020  1
  O  O3483  1  0.90905040  0.35091120  0.71099020  1
  O  O3484  1  0.90905040  0.35091120  0.91099020  1
  O  O3485  1  0.90905040  0.55091120  0.11099020  1
  O  O3486  1  0.90905040  0.55091120  0.31099020  1
  O  O3487  1  0.90905040  0.55091120  0.51099020  1
  O  O3488  1  0.90905040  0.55091120  0.71099020  1
  O  O3489  1  0.90905040  0.55091120  0.91099020  1
  O  O3490  1  0.90905040  0.75091120  0.11099020  1
  O  O3491  1  0.90905040  0.75091120  0.31099020  1
  O  O3492  1  0.90905040  0.75091120  0.51099020  1
  O  O3493  1  0.90905040  0.75091120  0.71099020  1
  O  O3494  1  0.90905040  0.75091120  0.91099020  1
  O  O3495  1  0.90905040  0.95091120  0.11099020  1
  O  O3496  1  0.90905040  0.95091120  0.31099020  1
  O  O3497  1  0.90905040  0.95091120  0.51099020  1
  O  O3498  1  0.90905040  0.95091120  0.71099020  1
  O  O3499  1  0.90905040  0.95091120  0.91099020  1
  O  O3500  1  0.03079860  0.16611520  0.05762780  1
  O  O3501  1  0.03079860  0.16611520  0.25762780  1
  O  O3502  1  0.03079860  0.16611520  0.45762780  1
  O  O3503  1  0.03079860  0.16611520  0.65762780  1
  O  O3504  1  0.03079860  0.16611520  0.85762780  1
  O  O3505  1  0.03079860  0.36611520  0.05762780  1
  O  O3506  1  0.03079860  0.36611520  0.25762780  1
  O  O3507  1  0.03079860  0.36611520  0.45762780  1
  O  O3508  1  0.03079860  0.36611520  0.65762780  1
  O  O3509  1  0.03079860  0.36611520  0.85762780  1
  O  O3510  1  0.03079860  0.56611520  0.05762780  1
  O  O3511  1  0.03079860  0.56611520  0.25762780  1
  O  O3512  1  0.03079860  0.56611520  0.45762780  1
  O  O3513  1  0.03079860  0.56611520  0.65762780  1
  O  O3514  1  0.03079860  0.56611520  0.85762780  1
  O  O3515  1  0.03079860  0.76611520  0.05762780  1
  O  O3516  1  0.03079860  0.76611520  0.25762780  1
  O  O3517  1  0.03079860  0.76611520  0.45762780  1
  O  O3518  1  0.03079860  0.76611520  0.65762780  1
  O  O3519  1  0.03079860  0.76611520  0.85762780  1
  O  O3520  1  0.03079860  0.96611520  0.05762780  1
  O  O3521  1  0.03079860  0.96611520  0.25762780  1
  O  O3522  1  0.03079860  0.96611520  0.45762780  1
  O  O3523  1  0.03079860  0.96611520  0.65762780  1
  O  O3524  1  0.03079860  0.96611520  0.85762780  1
  O  O3525  1  0.23079860  0.16611520  0.05762780  1
  O  O3526  1  0.23079860  0.16611520  0.25762780  1
  O  O3527  1  0.23079860  0.16611520  0.45762780  1
  O  O3528  1  0.23079860  0.16611520  0.65762780  1
  O  O3529  1  0.23079860  0.16611520  0.85762780  1
  O  O3530  1  0.23079860  0.36611520  0.05762780  1
  O  O3531  1  0.23079860  0.36611520  0.25762780  1
  O  O3532  1  0.23079860  0.36611520  0.45762780  1
  O  O3533  1  0.23079860  0.36611520  0.65762780  1
  O  O3534  1  0.23079860  0.36611520  0.85762780  1
  O  O3535  1  0.23079860  0.56611520  0.05762780  1
  O  O3536  1  0.23079860  0.56611520  0.25762780  1
  O  O3537  1  0.23079860  0.56611520  0.45762780  1
  O  O3538  1  0.23079860  0.56611520  0.65762780  1
  O  O3539  1  0.23079860  0.56611520  0.85762780  1
  O  O3540  1  0.23079860  0.76611520  0.05762780  1
  O  O3541  1  0.23079860  0.76611520  0.25762780  1
  O  O3542  1  0.23079860  0.76611520  0.45762780  1
  O  O3543  1  0.23079860  0.76611520  0.65762780  1
  O  O3544  1  0.23079860  0.76611520  0.85762780  1
  O  O3545  1  0.23079860  0.96611520  0.05762780  1
  O  O3546  1  0.23079860  0.96611520  0.25762780  1
  O  O3547  1  0.23079860  0.96611520  0.45762780  1
  O  O3548  1  0.23079860  0.96611520  0.65762780  1
  O  O3549  1  0.23079860  0.96611520  0.85762780  1
  O  O3550  1  0.43079860  0.16611520  0.05762780  1
  O  O3551  1  0.43079860  0.16611520  0.25762780  1
  O  O3552  1  0.43079860  0.16611520  0.45762780  1
  O  O3553  1  0.43079860  0.16611520  0.65762780  1
  O  O3554  1  0.43079860  0.16611520  0.85762780  1
  O  O3555  1  0.43079860  0.36611520  0.05762780  1
  O  O3556  1  0.43079860  0.36611520  0.25762780  1
  O  O3557  1  0.43079860  0.36611520  0.45762780  1
  O  O3558  1  0.43079860  0.36611520  0.65762780  1
  O  O3559  1  0.43079860  0.36611520  0.85762780  1
  O  O3560  1  0.43079860  0.56611520  0.05762780  1
  O  O3561  1  0.43079860  0.56611520  0.25762780  1
  O  O3562  1  0.43079860  0.56611520  0.45762780  1
  O  O3563  1  0.43079860  0.56611520  0.65762780  1
  O  O3564  1  0.43079860  0.56611520  0.85762780  1
  O  O3565  1  0.43079860  0.76611520  0.05762780  1
  O  O3566  1  0.43079860  0.76611520  0.25762780  1
  O  O3567  1  0.43079860  0.76611520  0.45762780  1
  O  O3568  1  0.43079860  0.76611520  0.65762780  1
  O  O3569  1  0.43079860  0.76611520  0.85762780  1
  O  O3570  1  0.43079860  0.96611520  0.05762780  1
  O  O3571  1  0.43079860  0.96611520  0.25762780  1
  O  O3572  1  0.43079860  0.96611520  0.45762780  1
  O  O3573  1  0.43079860  0.96611520  0.65762780  1
  O  O3574  1  0.43079860  0.96611520  0.85762780  1
  O  O3575  1  0.63079860  0.16611520  0.05762780  1
  O  O3576  1  0.63079860  0.16611520  0.25762780  1
  O  O3577  1  0.63079860  0.16611520  0.45762780  1
  O  O3578  1  0.63079860  0.16611520  0.65762780  1
  O  O3579  1  0.63079860  0.16611520  0.85762780  1
  O  O3580  1  0.63079860  0.36611520  0.05762780  1
  O  O3581  1  0.63079860  0.36611520  0.25762780  1
  O  O3582  1  0.63079860  0.36611520  0.45762780  1
  O  O3583  1  0.63079860  0.36611520  0.65762780  1
  O  O3584  1  0.63079860  0.36611520  0.85762780  1
  O  O3585  1  0.63079860  0.56611520  0.05762780  1
  O  O3586  1  0.63079860  0.56611520  0.25762780  1
  O  O3587  1  0.63079860  0.56611520  0.45762780  1
  O  O3588  1  0.63079860  0.56611520  0.65762780  1
  O  O3589  1  0.63079860  0.56611520  0.85762780  1
  O  O3590  1  0.63079860  0.76611520  0.05762780  1
  O  O3591  1  0.63079860  0.76611520  0.25762780  1
  O  O3592  1  0.63079860  0.76611520  0.45762780  1
  O  O3593  1  0.63079860  0.76611520  0.65762780  1
  O  O3594  1  0.63079860  0.76611520  0.85762780  1
  O  O3595  1  0.63079860  0.96611520  0.05762780  1
  O  O3596  1  0.63079860  0.96611520  0.25762780  1
  O  O3597  1  0.63079860  0.96611520  0.45762780  1
  O  O3598  1  0.63079860  0.96611520  0.65762780  1
  O  O3599  1  0.63079860  0.96611520  0.85762780  1
  O  O3600  1  0.83079860  0.16611520  0.05762780  1
  O  O3601  1  0.83079860  0.16611520  0.25762780  1
  O  O3602  1  0.83079860  0.16611520  0.45762780  1
  O  O3603  1  0.83079860  0.16611520  0.65762780  1
  O  O3604  1  0.83079860  0.16611520  0.85762780  1
  O  O3605  1  0.83079860  0.36611520  0.05762780  1
  O  O3606  1  0.83079860  0.36611520  0.25762780  1
  O  O3607  1  0.83079860  0.36611520  0.45762780  1
  O  O3608  1  0.83079860  0.36611520  0.65762780  1
  O  O3609  1  0.83079860  0.36611520  0.85762780  1
  O  O3610  1  0.83079860  0.56611520  0.05762780  1
  O  O3611  1  0.83079860  0.56611520  0.25762780  1
  O  O3612  1  0.83079860  0.56611520  0.45762780  1
  O  O3613  1  0.83079860  0.56611520  0.65762780  1
  O  O3614  1  0.83079860  0.56611520  0.85762780  1
  O  O3615  1  0.83079860  0.76611520  0.05762780  1
  O  O3616  1  0.83079860  0.76611520  0.25762780  1
  O  O3617  1  0.83079860  0.76611520  0.45762780  1
  O  O3618  1  0.83079860  0.76611520  0.65762780  1
  O  O3619  1  0.83079860  0.76611520  0.85762780  1
  O  O3620  1  0.83079860  0.96611520  0.05762780  1
  O  O3621  1  0.83079860  0.96611520  0.25762780  1
  O  O3622  1  0.83079860  0.96611520  0.45762780  1
  O  O3623  1  0.83079860  0.96611520  0.65762780  1
  O  O3624  1  0.83079860  0.96611520  0.85762780  1
