# generated using pymatgen
data_Li2Mn3(SeO3)4
_symmetry_space_group_name_H-M   'P 1'
_cell_length_a   38.49996000
_cell_length_b   42.73815009
_cell_length_c   54.02233601
_cell_angle_alpha   105.84676626
_cell_angle_beta   88.11800829
_cell_angle_gamma   116.02827353
_symmetry_Int_Tables_number   1
_chemical_formula_structural   Li2Mn3(SeO3)4
_chemical_formula_sum   'Li500 Mn750 Se1000 O3000'
_cell_volume   76448.32952753
_cell_formula_units_Z   250
loop_
 _symmetry_equiv_pos_site_id
 _symmetry_equiv_pos_as_xyz
  1  'x, y, z'
loop_
 _atom_site_type_symbol
 _atom_site_label
 _atom_site_symmetry_multiplicity
 _atom_site_fract_x
 _atom_site_fract_y
 _atom_site_fract_z
 _atom_site_occupancy
  Li  Li0  1  0.15023860  0.10875840  0.18591940  1
  Li  Li1  1  0.15023860  0.10875840  0.38591940  1
  Li  Li2  1  0.15023860  0.10875840  0.58591940  1
  Li  Li3  1  0.15023860  0.10875840  0.78591940  1
  Li  Li4  1  0.15023860  0.10875840  0.98591940  1
  Li  Li5  1  0.15023860  0.30875840  0.18591940  1
  Li  Li6  1  0.15023860  0.30875840  0.38591940  1
  Li  Li7  1  0.15023860  0.30875840  0.58591940  1
  Li  Li8  1  0.15023860  0.30875840  0.78591940  1
  Li  Li9  1  0.15023860  0.30875840  0.98591940  1
  Li  Li10  1  0.15023860  0.50875840  0.18591940  1
  Li  Li11  1  0.15023860  0.50875840  0.38591940  1
  Li  Li12  1  0.15023860  0.50875840  0.58591940  1
  Li  Li13  1  0.15023860  0.50875840  0.78591940  1
  Li  Li14  1  0.15023860  0.50875840  0.98591940  1
  Li  Li15  1  0.15023860  0.70875840  0.18591940  1
  Li  Li16  1  0.15023860  0.70875840  0.38591940  1
  Li  Li17  1  0.15023860  0.70875840  0.58591940  1
  Li  Li18  1  0.15023860  0.70875840  0.78591940  1
  Li  Li19  1  0.15023860  0.70875840  0.98591940  1
  Li  Li20  1  0.15023860  0.90875840  0.18591940  1
  Li  Li21  1  0.15023860  0.90875840  0.38591940  1
  Li  Li22  1  0.15023860  0.90875840  0.58591940  1
  Li  Li23  1  0.15023860  0.90875840  0.78591940  1
  Li  Li24  1  0.15023860  0.90875840  0.98591940  1
  Li  Li25  1  0.35023860  0.10875840  0.18591940  1
  Li  Li26  1  0.35023860  0.10875840  0.38591940  1
  Li  Li27  1  0.35023860  0.10875840  0.58591940  1
  Li  Li28  1  0.35023860  0.10875840  0.78591940  1
  Li  Li29  1  0.35023860  0.10875840  0.98591940  1
  Li  Li30  1  0.35023860  0.30875840  0.18591940  1
  Li  Li31  1  0.35023860  0.30875840  0.38591940  1
  Li  Li32  1  0.35023860  0.30875840  0.58591940  1
  Li  Li33  1  0.35023860  0.30875840  0.78591940  1
  Li  Li34  1  0.35023860  0.30875840  0.98591940  1
  Li  Li35  1  0.35023860  0.50875840  0.18591940  1
  Li  Li36  1  0.35023860  0.50875840  0.38591940  1
  Li  Li37  1  0.35023860  0.50875840  0.58591940  1
  Li  Li38  1  0.35023860  0.50875840  0.78591940  1
  Li  Li39  1  0.35023860  0.50875840  0.98591940  1
  Li  Li40  1  0.35023860  0.70875840  0.18591940  1
  Li  Li41  1  0.35023860  0.70875840  0.38591940  1
  Li  Li42  1  0.35023860  0.70875840  0.58591940  1
  Li  Li43  1  0.35023860  0.70875840  0.78591940  1
  Li  Li44  1  0.35023860  0.70875840  0.98591940  1
  Li  Li45  1  0.35023860  0.90875840  0.18591940  1
  Li  Li46  1  0.35023860  0.90875840  0.38591940  1
  Li  Li47  1  0.35023860  0.90875840  0.58591940  1
  Li  Li48  1  0.35023860  0.90875840  0.78591940  1
  Li  Li49  1  0.35023860  0.90875840  0.98591940  1
  Li  Li50  1  0.55023860  0.10875840  0.18591940  1
  Li  Li51  1  0.55023860  0.10875840  0.38591940  1
  Li  Li52  1  0.55023860  0.10875840  0.58591940  1
  Li  Li53  1  0.55023860  0.10875840  0.78591940  1
  Li  Li54  1  0.55023860  0.10875840  0.98591940  1
  Li  Li55  1  0.55023860  0.30875840  0.18591940  1
  Li  Li56  1  0.55023860  0.30875840  0.38591940  1
  Li  Li57  1  0.55023860  0.30875840  0.58591940  1
  Li  Li58  1  0.55023860  0.30875840  0.78591940  1
  Li  Li59  1  0.55023860  0.30875840  0.98591940  1
  Li  Li60  1  0.55023860  0.50875840  0.18591940  1
  Li  Li61  1  0.55023860  0.50875840  0.38591940  1
  Li  Li62  1  0.55023860  0.50875840  0.58591940  1
  Li  Li63  1  0.55023860  0.50875840  0.78591940  1
  Li  Li64  1  0.55023860  0.50875840  0.98591940  1
  Li  Li65  1  0.55023860  0.70875840  0.18591940  1
  Li  Li66  1  0.55023860  0.70875840  0.38591940  1
  Li  Li67  1  0.55023860  0.70875840  0.58591940  1
  Li  Li68  1  0.55023860  0.70875840  0.78591940  1
  Li  Li69  1  0.55023860  0.70875840  0.98591940  1
  Li  Li70  1  0.55023860  0.90875840  0.18591940  1
  Li  Li71  1  0.55023860  0.90875840  0.38591940  1
  Li  Li72  1  0.55023860  0.90875840  0.58591940  1
  Li  Li73  1  0.55023860  0.90875840  0.78591940  1
  Li  Li74  1  0.55023860  0.90875840  0.98591940  1
  Li  Li75  1  0.75023860  0.10875840  0.18591940  1
  Li  Li76  1  0.75023860  0.10875840  0.38591940  1
  Li  Li77  1  0.75023860  0.10875840  0.58591940  1
  Li  Li78  1  0.75023860  0.10875840  0.78591940  1
  Li  Li79  1  0.75023860  0.10875840  0.98591940  1
  Li  Li80  1  0.75023860  0.30875840  0.18591940  1
  Li  Li81  1  0.75023860  0.30875840  0.38591940  1
  Li  Li82  1  0.75023860  0.30875840  0.58591940  1
  Li  Li83  1  0.75023860  0.30875840  0.78591940  1
  Li  Li84  1  0.75023860  0.30875840  0.98591940  1
  Li  Li85  1  0.75023860  0.50875840  0.18591940  1
  Li  Li86  1  0.75023860  0.50875840  0.38591940  1
  Li  Li87  1  0.75023860  0.50875840  0.58591940  1
  Li  Li88  1  0.75023860  0.50875840  0.78591940  1
  Li  Li89  1  0.75023860  0.50875840  0.98591940  1
  Li  Li90  1  0.75023860  0.70875840  0.18591940  1
  Li  Li91  1  0.75023860  0.70875840  0.38591940  1
  Li  Li92  1  0.75023860  0.70875840  0.58591940  1
  Li  Li93  1  0.75023860  0.70875840  0.78591940  1
  Li  Li94  1  0.75023860  0.70875840  0.98591940  1
  Li  Li95  1  0.75023860  0.90875840  0.18591940  1
  Li  Li96  1  0.75023860  0.90875840  0.38591940  1
  Li  Li97  1  0.75023860  0.90875840  0.58591940  1
  Li  Li98  1  0.75023860  0.90875840  0.78591940  1
  Li  Li99  1  0.75023860  0.90875840  0.98591940  1
  Li  Li100  1  0.95023860  0.10875840  0.18591940  1
  Li  Li101  1  0.95023860  0.10875840  0.38591940  1
  Li  Li102  1  0.95023860  0.10875840  0.58591940  1
  Li  Li103  1  0.95023860  0.10875840  0.78591940  1
  Li  Li104  1  0.95023860  0.10875840  0.98591940  1
  Li  Li105  1  0.95023860  0.30875840  0.18591940  1
  Li  Li106  1  0.95023860  0.30875840  0.38591940  1
  Li  Li107  1  0.95023860  0.30875840  0.58591940  1
  Li  Li108  1  0.95023860  0.30875840  0.78591940  1
  Li  Li109  1  0.95023860  0.30875840  0.98591940  1
  Li  Li110  1  0.95023860  0.50875840  0.18591940  1
  Li  Li111  1  0.95023860  0.50875840  0.38591940  1
  Li  Li112  1  0.95023860  0.50875840  0.58591940  1
  Li  Li113  1  0.95023860  0.50875840  0.78591940  1
  Li  Li114  1  0.95023860  0.50875840  0.98591940  1
  Li  Li115  1  0.95023860  0.70875840  0.18591940  1
  Li  Li116  1  0.95023860  0.70875840  0.38591940  1
  Li  Li117  1  0.95023860  0.70875840  0.58591940  1
  Li  Li118  1  0.95023860  0.70875840  0.78591940  1
  Li  Li119  1  0.95023860  0.70875840  0.98591940  1
  Li  Li120  1  0.95023860  0.90875840  0.18591940  1
  Li  Li121  1  0.95023860  0.90875840  0.38591940  1
  Li  Li122  1  0.95023860  0.90875840  0.58591940  1
  Li  Li123  1  0.95023860  0.90875840  0.78591940  1
  Li  Li124  1  0.95023860  0.90875840  0.98591940  1
  Li  Li125  1  0.12967720  0.10901800  0.08314660  1
  Li  Li126  1  0.12967720  0.10901800  0.28314660  1
  Li  Li127  1  0.12967720  0.10901800  0.48314660  1
  Li  Li128  1  0.12967720  0.10901800  0.68314660  1
  Li  Li129  1  0.12967720  0.10901800  0.88314660  1
  Li  Li130  1  0.12967720  0.30901800  0.08314660  1
  Li  Li131  1  0.12967720  0.30901800  0.28314660  1
  Li  Li132  1  0.12967720  0.30901800  0.48314660  1
  Li  Li133  1  0.12967720  0.30901800  0.68314660  1
  Li  Li134  1  0.12967720  0.30901800  0.88314660  1
  Li  Li135  1  0.12967720  0.50901800  0.08314660  1
  Li  Li136  1  0.12967720  0.50901800  0.28314660  1
  Li  Li137  1  0.12967720  0.50901800  0.48314660  1
  Li  Li138  1  0.12967720  0.50901800  0.68314660  1
  Li  Li139  1  0.12967720  0.50901800  0.88314660  1
  Li  Li140  1  0.12967720  0.70901800  0.08314660  1
  Li  Li141  1  0.12967720  0.70901800  0.28314660  1
  Li  Li142  1  0.12967720  0.70901800  0.48314660  1
  Li  Li143  1  0.12967720  0.70901800  0.68314660  1
  Li  Li144  1  0.12967720  0.70901800  0.88314660  1
  Li  Li145  1  0.12967720  0.90901800  0.08314660  1
  Li  Li146  1  0.12967720  0.90901800  0.28314660  1
  Li  Li147  1  0.12967720  0.90901800  0.48314660  1
  Li  Li148  1  0.12967720  0.90901800  0.68314660  1
  Li  Li149  1  0.12967720  0.90901800  0.88314660  1
  Li  Li150  1  0.32967720  0.10901800  0.08314660  1
  Li  Li151  1  0.32967720  0.10901800  0.28314660  1
  Li  Li152  1  0.32967720  0.10901800  0.48314660  1
  Li  Li153  1  0.32967720  0.10901800  0.68314660  1
  Li  Li154  1  0.32967720  0.10901800  0.88314660  1
  Li  Li155  1  0.32967720  0.30901800  0.08314660  1
  Li  Li156  1  0.32967720  0.30901800  0.28314660  1
  Li  Li157  1  0.32967720  0.30901800  0.48314660  1
  Li  Li158  1  0.32967720  0.30901800  0.68314660  1
  Li  Li159  1  0.32967720  0.30901800  0.88314660  1
  Li  Li160  1  0.32967720  0.50901800  0.08314660  1
  Li  Li161  1  0.32967720  0.50901800  0.28314660  1
  Li  Li162  1  0.32967720  0.50901800  0.48314660  1
  Li  Li163  1  0.32967720  0.50901800  0.68314660  1
  Li  Li164  1  0.32967720  0.50901800  0.88314660  1
  Li  Li165  1  0.32967720  0.70901800  0.08314660  1
  Li  Li166  1  0.32967720  0.70901800  0.28314660  1
  Li  Li167  1  0.32967720  0.70901800  0.48314660  1
  Li  Li168  1  0.32967720  0.70901800  0.68314660  1
  Li  Li169  1  0.32967720  0.70901800  0.88314660  1
  Li  Li170  1  0.32967720  0.90901800  0.08314660  1
  Li  Li171  1  0.32967720  0.90901800  0.28314660  1
  Li  Li172  1  0.32967720  0.90901800  0.48314660  1
  Li  Li173  1  0.32967720  0.90901800  0.68314660  1
  Li  Li174  1  0.32967720  0.90901800  0.88314660  1
  Li  Li175  1  0.52967720  0.10901800  0.08314660  1
  Li  Li176  1  0.52967720  0.10901800  0.28314660  1
  Li  Li177  1  0.52967720  0.10901800  0.48314660  1
  Li  Li178  1  0.52967720  0.10901800  0.68314660  1
  Li  Li179  1  0.52967720  0.10901800  0.88314660  1
  Li  Li180  1  0.52967720  0.30901800  0.08314660  1
  Li  Li181  1  0.52967720  0.30901800  0.28314660  1
  Li  Li182  1  0.52967720  0.30901800  0.48314660  1
  Li  Li183  1  0.52967720  0.30901800  0.68314660  1
  Li  Li184  1  0.52967720  0.30901800  0.88314660  1
  Li  Li185  1  0.52967720  0.50901800  0.08314660  1
  Li  Li186  1  0.52967720  0.50901800  0.28314660  1
  Li  Li187  1  0.52967720  0.50901800  0.48314660  1
  Li  Li188  1  0.52967720  0.50901800  0.68314660  1
  Li  Li189  1  0.52967720  0.50901800  0.88314660  1
  Li  Li190  1  0.52967720  0.70901800  0.08314660  1
  Li  Li191  1  0.52967720  0.70901800  0.28314660  1
  Li  Li192  1  0.52967720  0.70901800  0.48314660  1
  Li  Li193  1  0.52967720  0.70901800  0.68314660  1
  Li  Li194  1  0.52967720  0.70901800  0.88314660  1
  Li  Li195  1  0.52967720  0.90901800  0.08314660  1
  Li  Li196  1  0.52967720  0.90901800  0.28314660  1
  Li  Li197  1  0.52967720  0.90901800  0.48314660  1
  Li  Li198  1  0.52967720  0.90901800  0.68314660  1
  Li  Li199  1  0.52967720  0.90901800  0.88314660  1
  Li  Li200  1  0.72967720  0.10901800  0.08314660  1
  Li  Li201  1  0.72967720  0.10901800  0.28314660  1
  Li  Li202  1  0.72967720  0.10901800  0.48314660  1
  Li  Li203  1  0.72967720  0.10901800  0.68314660  1
  Li  Li204  1  0.72967720  0.10901800  0.88314660  1
  Li  Li205  1  0.72967720  0.30901800  0.08314660  1
  Li  Li206  1  0.72967720  0.30901800  0.28314660  1
  Li  Li207  1  0.72967720  0.30901800  0.48314660  1
  Li  Li208  1  0.72967720  0.30901800  0.68314660  1
  Li  Li209  1  0.72967720  0.30901800  0.88314660  1
  Li  Li210  1  0.72967720  0.50901800  0.08314660  1
  Li  Li211  1  0.72967720  0.50901800  0.28314660  1
  Li  Li212  1  0.72967720  0.50901800  0.48314660  1
  Li  Li213  1  0.72967720  0.50901800  0.68314660  1
  Li  Li214  1  0.72967720  0.50901800  0.88314660  1
  Li  Li215  1  0.72967720  0.70901800  0.08314660  1
  Li  Li216  1  0.72967720  0.70901800  0.28314660  1
  Li  Li217  1  0.72967720  0.70901800  0.48314660  1
  Li  Li218  1  0.72967720  0.70901800  0.68314660  1
  Li  Li219  1  0.72967720  0.70901800  0.88314660  1
  Li  Li220  1  0.72967720  0.90901800  0.08314660  1
  Li  Li221  1  0.72967720  0.90901800  0.28314660  1
  Li  Li222  1  0.72967720  0.90901800  0.48314660  1
  Li  Li223  1  0.72967720  0.90901800  0.68314660  1
  Li  Li224  1  0.72967720  0.90901800  0.88314660  1
  Li  Li225  1  0.92967720  0.10901800  0.08314660  1
  Li  Li226  1  0.92967720  0.10901800  0.28314660  1
  Li  Li227  1  0.92967720  0.10901800  0.48314660  1
  Li  Li228  1  0.92967720  0.10901800  0.68314660  1
  Li  Li229  1  0.92967720  0.10901800  0.88314660  1
  Li  Li230  1  0.92967720  0.30901800  0.08314660  1
  Li  Li231  1  0.92967720  0.30901800  0.28314660  1
  Li  Li232  1  0.92967720  0.30901800  0.48314660  1
  Li  Li233  1  0.92967720  0.30901800  0.68314660  1
  Li  Li234  1  0.92967720  0.30901800  0.88314660  1
  Li  Li235  1  0.92967720  0.50901800  0.08314660  1
  Li  Li236  1  0.92967720  0.50901800  0.28314660  1
  Li  Li237  1  0.92967720  0.50901800  0.48314660  1
  Li  Li238  1  0.92967720  0.50901800  0.68314660  1
  Li  Li239  1  0.92967720  0.50901800  0.88314660  1
  Li  Li240  1  0.92967720  0.70901800  0.08314660  1
  Li  Li241  1  0.92967720  0.70901800  0.28314660  1
  Li  Li242  1  0.92967720  0.70901800  0.48314660  1
  Li  Li243  1  0.92967720  0.70901800  0.68314660  1
  Li  Li244  1  0.92967720  0.70901800  0.88314660  1
  Li  Li245  1  0.92967720  0.90901800  0.08314660  1
  Li  Li246  1  0.92967720  0.90901800  0.28314660  1
  Li  Li247  1  0.92967720  0.90901800  0.48314660  1
  Li  Li248  1  0.92967720  0.90901800  0.68314660  1
  Li  Li249  1  0.92967720  0.90901800  0.88314660  1
  Li  Li250  1  0.07032280  0.09098200  0.11685340  1
  Li  Li251  1  0.07032280  0.09098200  0.31685340  1
  Li  Li252  1  0.07032280  0.09098200  0.51685340  1
  Li  Li253  1  0.07032280  0.09098200  0.71685340  1
  Li  Li254  1  0.07032280  0.09098200  0.91685340  1
  Li  Li255  1  0.07032280  0.29098200  0.11685340  1
  Li  Li256  1  0.07032280  0.29098200  0.31685340  1
  Li  Li257  1  0.07032280  0.29098200  0.51685340  1
  Li  Li258  1  0.07032280  0.29098200  0.71685340  1
  Li  Li259  1  0.07032280  0.29098200  0.91685340  1
  Li  Li260  1  0.07032280  0.49098200  0.11685340  1
  Li  Li261  1  0.07032280  0.49098200  0.31685340  1
  Li  Li262  1  0.07032280  0.49098200  0.51685340  1
  Li  Li263  1  0.07032280  0.49098200  0.71685340  1
  Li  Li264  1  0.07032280  0.49098200  0.91685340  1
  Li  Li265  1  0.07032280  0.69098200  0.11685340  1
  Li  Li266  1  0.07032280  0.69098200  0.31685340  1
  Li  Li267  1  0.07032280  0.69098200  0.51685340  1
  Li  Li268  1  0.07032280  0.69098200  0.71685340  1
  Li  Li269  1  0.07032280  0.69098200  0.91685340  1
  Li  Li270  1  0.07032280  0.89098200  0.11685340  1
  Li  Li271  1  0.07032280  0.89098200  0.31685340  1
  Li  Li272  1  0.07032280  0.89098200  0.51685340  1
  Li  Li273  1  0.07032280  0.89098200  0.71685340  1
  Li  Li274  1  0.07032280  0.89098200  0.91685340  1
  Li  Li275  1  0.27032280  0.09098200  0.11685340  1
  Li  Li276  1  0.27032280  0.09098200  0.31685340  1
  Li  Li277  1  0.27032280  0.09098200  0.51685340  1
  Li  Li278  1  0.27032280  0.09098200  0.71685340  1
  Li  Li279  1  0.27032280  0.09098200  0.91685340  1
  Li  Li280  1  0.27032280  0.29098200  0.11685340  1
  Li  Li281  1  0.27032280  0.29098200  0.31685340  1
  Li  Li282  1  0.27032280  0.29098200  0.51685340  1
  Li  Li283  1  0.27032280  0.29098200  0.71685340  1
  Li  Li284  1  0.27032280  0.29098200  0.91685340  1
  Li  Li285  1  0.27032280  0.49098200  0.11685340  1
  Li  Li286  1  0.27032280  0.49098200  0.31685340  1
  Li  Li287  1  0.27032280  0.49098200  0.51685340  1
  Li  Li288  1  0.27032280  0.49098200  0.71685340  1
  Li  Li289  1  0.27032280  0.49098200  0.91685340  1
  Li  Li290  1  0.27032280  0.69098200  0.11685340  1
  Li  Li291  1  0.27032280  0.69098200  0.31685340  1
  Li  Li292  1  0.27032280  0.69098200  0.51685340  1
  Li  Li293  1  0.27032280  0.69098200  0.71685340  1
  Li  Li294  1  0.27032280  0.69098200  0.91685340  1
  Li  Li295  1  0.27032280  0.89098200  0.11685340  1
  Li  Li296  1  0.27032280  0.89098200  0.31685340  1
  Li  Li297  1  0.27032280  0.89098200  0.51685340  1
  Li  Li298  1  0.27032280  0.89098200  0.71685340  1
  Li  Li299  1  0.27032280  0.89098200  0.91685340  1
  Li  Li300  1  0.47032280  0.09098200  0.11685340  1
  Li  Li301  1  0.47032280  0.09098200  0.31685340  1
  Li  Li302  1  0.47032280  0.09098200  0.51685340  1
  Li  Li303  1  0.47032280  0.09098200  0.71685340  1
  Li  Li304  1  0.47032280  0.09098200  0.91685340  1
  Li  Li305  1  0.47032280  0.29098200  0.11685340  1
  Li  Li306  1  0.47032280  0.29098200  0.31685340  1
  Li  Li307  1  0.47032280  0.29098200  0.51685340  1
  Li  Li308  1  0.47032280  0.29098200  0.71685340  1
  Li  Li309  1  0.47032280  0.29098200  0.91685340  1
  Li  Li310  1  0.47032280  0.49098200  0.11685340  1
  Li  Li311  1  0.47032280  0.49098200  0.31685340  1
  Li  Li312  1  0.47032280  0.49098200  0.51685340  1
  Li  Li313  1  0.47032280  0.49098200  0.71685340  1
  Li  Li314  1  0.47032280  0.49098200  0.91685340  1
  Li  Li315  1  0.47032280  0.69098200  0.11685340  1
  Li  Li316  1  0.47032280  0.69098200  0.31685340  1
  Li  Li317  1  0.47032280  0.69098200  0.51685340  1
  Li  Li318  1  0.47032280  0.69098200  0.71685340  1
  Li  Li319  1  0.47032280  0.69098200  0.91685340  1
  Li  Li320  1  0.47032280  0.89098200  0.11685340  1
  Li  Li321  1  0.47032280  0.89098200  0.31685340  1
  Li  Li322  1  0.47032280  0.89098200  0.51685340  1
  Li  Li323  1  0.47032280  0.89098200  0.71685340  1
  Li  Li324  1  0.47032280  0.89098200  0.91685340  1
  Li  Li325  1  0.67032280  0.09098200  0.11685340  1
  Li  Li326  1  0.67032280  0.09098200  0.31685340  1
  Li  Li327  1  0.67032280  0.09098200  0.51685340  1
  Li  Li328  1  0.67032280  0.09098200  0.71685340  1
  Li  Li329  1  0.67032280  0.09098200  0.91685340  1
  Li  Li330  1  0.67032280  0.29098200  0.11685340  1
  Li  Li331  1  0.67032280  0.29098200  0.31685340  1
  Li  Li332  1  0.67032280  0.29098200  0.51685340  1
  Li  Li333  1  0.67032280  0.29098200  0.71685340  1
  Li  Li334  1  0.67032280  0.29098200  0.91685340  1
  Li  Li335  1  0.67032280  0.49098200  0.11685340  1
  Li  Li336  1  0.67032280  0.49098200  0.31685340  1
  Li  Li337  1  0.67032280  0.49098200  0.51685340  1
  Li  Li338  1  0.67032280  0.49098200  0.71685340  1
  Li  Li339  1  0.67032280  0.49098200  0.91685340  1
  Li  Li340  1  0.67032280  0.69098200  0.11685340  1
  Li  Li341  1  0.67032280  0.69098200  0.31685340  1
  Li  Li342  1  0.67032280  0.69098200  0.51685340  1
  Li  Li343  1  0.67032280  0.69098200  0.71685340  1
  Li  Li344  1  0.67032280  0.69098200  0.91685340  1
  Li  Li345  1  0.67032280  0.89098200  0.11685340  1
  Li  Li346  1  0.67032280  0.89098200  0.31685340  1
  Li  Li347  1  0.67032280  0.89098200  0.51685340  1
  Li  Li348  1  0.67032280  0.89098200  0.71685340  1
  Li  Li349  1  0.67032280  0.89098200  0.91685340  1
  Li  Li350  1  0.87032280  0.09098200  0.11685340  1
  Li  Li351  1  0.87032280  0.09098200  0.31685340  1
  Li  Li352  1  0.87032280  0.09098200  0.51685340  1
  Li  Li353  1  0.87032280  0.09098200  0.71685340  1
  Li  Li354  1  0.87032280  0.09098200  0.91685340  1
  Li  Li355  1  0.87032280  0.29098200  0.11685340  1
  Li  Li356  1  0.87032280  0.29098200  0.31685340  1
  Li  Li357  1  0.87032280  0.29098200  0.51685340  1
  Li  Li358  1  0.87032280  0.29098200  0.71685340  1
  Li  Li359  1  0.87032280  0.29098200  0.91685340  1
  Li  Li360  1  0.87032280  0.49098200  0.11685340  1
  Li  Li361  1  0.87032280  0.49098200  0.31685340  1
  Li  Li362  1  0.87032280  0.49098200  0.51685340  1
  Li  Li363  1  0.87032280  0.49098200  0.71685340  1
  Li  Li364  1  0.87032280  0.49098200  0.91685340  1
  Li  Li365  1  0.87032280  0.69098200  0.11685340  1
  Li  Li366  1  0.87032280  0.69098200  0.31685340  1
  Li  Li367  1  0.87032280  0.69098200  0.51685340  1
  Li  Li368  1  0.87032280  0.69098200  0.71685340  1
  Li  Li369  1  0.87032280  0.69098200  0.91685340  1
  Li  Li370  1  0.87032280  0.89098200  0.11685340  1
  Li  Li371  1  0.87032280  0.89098200  0.31685340  1
  Li  Li372  1  0.87032280  0.89098200  0.51685340  1
  Li  Li373  1  0.87032280  0.89098200  0.71685340  1
  Li  Li374  1  0.87032280  0.89098200  0.91685340  1
  Li  Li375  1  0.04976140  0.09124160  0.01408060  1
  Li  Li376  1  0.04976140  0.09124160  0.21408060  1
  Li  Li377  1  0.04976140  0.09124160  0.41408060  1
  Li  Li378  1  0.04976140  0.09124160  0.61408060  1
  Li  Li379  1  0.04976140  0.09124160  0.81408060  1
  Li  Li380  1  0.04976140  0.29124160  0.01408060  1
  Li  Li381  1  0.04976140  0.29124160  0.21408060  1
  Li  Li382  1  0.04976140  0.29124160  0.41408060  1
  Li  Li383  1  0.04976140  0.29124160  0.61408060  1
  Li  Li384  1  0.04976140  0.29124160  0.81408060  1
  Li  Li385  1  0.04976140  0.49124160  0.01408060  1
  Li  Li386  1  0.04976140  0.49124160  0.21408060  1
  Li  Li387  1  0.04976140  0.49124160  0.41408060  1
  Li  Li388  1  0.04976140  0.49124160  0.61408060  1
  Li  Li389  1  0.04976140  0.49124160  0.81408060  1
  Li  Li390  1  0.04976140  0.69124160  0.01408060  1
  Li  Li391  1  0.04976140  0.69124160  0.21408060  1
  Li  Li392  1  0.04976140  0.69124160  0.41408060  1
  Li  Li393  1  0.04976140  0.69124160  0.61408060  1
  Li  Li394  1  0.04976140  0.69124160  0.81408060  1
  Li  Li395  1  0.04976140  0.89124160  0.01408060  1
  Li  Li396  1  0.04976140  0.89124160  0.21408060  1
  Li  Li397  1  0.04976140  0.89124160  0.41408060  1
  Li  Li398  1  0.04976140  0.89124160  0.61408060  1
  Li  Li399  1  0.04976140  0.89124160  0.81408060  1
  Li  Li400  1  0.24976140  0.09124160  0.01408060  1
  Li  Li401  1  0.24976140  0.09124160  0.21408060  1
  Li  Li402  1  0.24976140  0.09124160  0.41408060  1
  Li  Li403  1  0.24976140  0.09124160  0.61408060  1
  Li  Li404  1  0.24976140  0.09124160  0.81408060  1
  Li  Li405  1  0.24976140  0.29124160  0.01408060  1
  Li  Li406  1  0.24976140  0.29124160  0.21408060  1
  Li  Li407  1  0.24976140  0.29124160  0.41408060  1
  Li  Li408  1  0.24976140  0.29124160  0.61408060  1
  Li  Li409  1  0.24976140  0.29124160  0.81408060  1
  Li  Li410  1  0.24976140  0.49124160  0.01408060  1
  Li  Li411  1  0.24976140  0.49124160  0.21408060  1
  Li  Li412  1  0.24976140  0.49124160  0.41408060  1
  Li  Li413  1  0.24976140  0.49124160  0.61408060  1
  Li  Li414  1  0.24976140  0.49124160  0.81408060  1
  Li  Li415  1  0.24976140  0.69124160  0.01408060  1
  Li  Li416  1  0.24976140  0.69124160  0.21408060  1
  Li  Li417  1  0.24976140  0.69124160  0.41408060  1
  Li  Li418  1  0.24976140  0.69124160  0.61408060  1
  Li  Li419  1  0.24976140  0.69124160  0.81408060  1
  Li  Li420  1  0.24976140  0.89124160  0.01408060  1
  Li  Li421  1  0.24976140  0.89124160  0.21408060  1
  Li  Li422  1  0.24976140  0.89124160  0.41408060  1
  Li  Li423  1  0.24976140  0.89124160  0.61408060  1
  Li  Li424  1  0.24976140  0.89124160  0.81408060  1
  Li  Li425  1  0.44976140  0.09124160  0.01408060  1
  Li  Li426  1  0.44976140  0.09124160  0.21408060  1
  Li  Li427  1  0.44976140  0.09124160  0.41408060  1
  Li  Li428  1  0.44976140  0.09124160  0.61408060  1
  Li  Li429  1  0.44976140  0.09124160  0.81408060  1
  Li  Li430  1  0.44976140  0.29124160  0.01408060  1
  Li  Li431  1  0.44976140  0.29124160  0.21408060  1
  Li  Li432  1  0.44976140  0.29124160  0.41408060  1
  Li  Li433  1  0.44976140  0.29124160  0.61408060  1
  Li  Li434  1  0.44976140  0.29124160  0.81408060  1
  Li  Li435  1  0.44976140  0.49124160  0.01408060  1
  Li  Li436  1  0.44976140  0.49124160  0.21408060  1
  Li  Li437  1  0.44976140  0.49124160  0.41408060  1
  Li  Li438  1  0.44976140  0.49124160  0.61408060  1
  Li  Li439  1  0.44976140  0.49124160  0.81408060  1
  Li  Li440  1  0.44976140  0.69124160  0.01408060  1
  Li  Li441  1  0.44976140  0.69124160  0.21408060  1
  Li  Li442  1  0.44976140  0.69124160  0.41408060  1
  Li  Li443  1  0.44976140  0.69124160  0.61408060  1
  Li  Li444  1  0.44976140  0.69124160  0.81408060  1
  Li  Li445  1  0.44976140  0.89124160  0.01408060  1
  Li  Li446  1  0.44976140  0.89124160  0.21408060  1
  Li  Li447  1  0.44976140  0.89124160  0.41408060  1
  Li  Li448  1  0.44976140  0.89124160  0.61408060  1
  Li  Li449  1  0.44976140  0.89124160  0.81408060  1
  Li  Li450  1  0.64976140  0.09124160  0.01408060  1
  Li  Li451  1  0.64976140  0.09124160  0.21408060  1
  Li  Li452  1  0.64976140  0.09124160  0.41408060  1
  Li  Li453  1  0.64976140  0.09124160  0.61408060  1
  Li  Li454  1  0.64976140  0.09124160  0.81408060  1
  Li  Li455  1  0.64976140  0.29124160  0.01408060  1
  Li  Li456  1  0.64976140  0.29124160  0.21408060  1
  Li  Li457  1  0.64976140  0.29124160  0.41408060  1
  Li  Li458  1  0.64976140  0.29124160  0.61408060  1
  Li  Li459  1  0.64976140  0.29124160  0.81408060  1
  Li  Li460  1  0.64976140  0.49124160  0.01408060  1
  Li  Li461  1  0.64976140  0.49124160  0.21408060  1
  Li  Li462  1  0.64976140  0.49124160  0.41408060  1
  Li  Li463  1  0.64976140  0.49124160  0.61408060  1
  Li  Li464  1  0.64976140  0.49124160  0.81408060  1
  Li  Li465  1  0.64976140  0.69124160  0.01408060  1
  Li  Li466  1  0.64976140  0.69124160  0.21408060  1
  Li  Li467  1  0.64976140  0.69124160  0.41408060  1
  Li  Li468  1  0.64976140  0.69124160  0.61408060  1
  Li  Li469  1  0.64976140  0.69124160  0.81408060  1
  Li  Li470  1  0.64976140  0.89124160  0.01408060  1
  Li  Li471  1  0.64976140  0.89124160  0.21408060  1
  Li  Li472  1  0.64976140  0.89124160  0.41408060  1
  Li  Li473  1  0.64976140  0.89124160  0.61408060  1
  Li  Li474  1  0.64976140  0.89124160  0.81408060  1
  Li  Li475  1  0.84976140  0.09124160  0.01408060  1
  Li  Li476  1  0.84976140  0.09124160  0.21408060  1
  Li  Li477  1  0.84976140  0.09124160  0.41408060  1
  Li  Li478  1  0.84976140  0.09124160  0.61408060  1
  Li  Li479  1  0.84976140  0.09124160  0.81408060  1
  Li  Li480  1  0.84976140  0.29124160  0.01408060  1
  Li  Li481  1  0.84976140  0.29124160  0.21408060  1
  Li  Li482  1  0.84976140  0.29124160  0.41408060  1
  Li  Li483  1  0.84976140  0.29124160  0.61408060  1
  Li  Li484  1  0.84976140  0.29124160  0.81408060  1
  Li  Li485  1  0.84976140  0.49124160  0.01408060  1
  Li  Li486  1  0.84976140  0.49124160  0.21408060  1
  Li  Li487  1  0.84976140  0.49124160  0.41408060  1
  Li  Li488  1  0.84976140  0.49124160  0.61408060  1
  Li  Li489  1  0.84976140  0.49124160  0.81408060  1
  Li  Li490  1  0.84976140  0.69124160  0.01408060  1
  Li  Li491  1  0.84976140  0.69124160  0.21408060  1
  Li  Li492  1  0.84976140  0.69124160  0.41408060  1
  Li  Li493  1  0.84976140  0.69124160  0.61408060  1
  Li  Li494  1  0.84976140  0.69124160  0.81408060  1
  Li  Li495  1  0.84976140  0.89124160  0.01408060  1
  Li  Li496  1  0.84976140  0.89124160  0.21408060  1
  Li  Li497  1  0.84976140  0.89124160  0.41408060  1
  Li  Li498  1  0.84976140  0.89124160  0.61408060  1
  Li  Li499  1  0.84976140  0.89124160  0.81408060  1
  Mn  Mn500  1  0.00000000  0.00000000  0.00000000  1
  Mn  Mn501  1  0.00000000  0.00000000  0.20000000  1
  Mn  Mn502  1  0.00000000  0.00000000  0.40000000  1
  Mn  Mn503  1  0.00000000  0.00000000  0.60000000  1
  Mn  Mn504  1  0.00000000  0.00000000  0.80000000  1
  Mn  Mn505  1  1.00000000  0.20000000  0.00000000  1
  Mn  Mn506  1  0.00000000  0.20000000  0.20000000  1
  Mn  Mn507  1  0.00000000  0.20000000  0.40000000  1
  Mn  Mn508  1  0.00000000  0.20000000  0.60000000  1
  Mn  Mn509  1  0.00000000  0.20000000  0.80000000  1
  Mn  Mn510  1  1.00000000  0.40000000  0.00000000  1
  Mn  Mn511  1  0.00000000  0.40000000  0.20000000  1
  Mn  Mn512  1  0.00000000  0.40000000  0.40000000  1
  Mn  Mn513  1  0.00000000  0.40000000  0.60000000  1
  Mn  Mn514  1  0.00000000  0.40000000  0.80000000  1
  Mn  Mn515  1  1.00000000  0.60000000  0.00000000  1
  Mn  Mn516  1  0.00000000  0.60000000  0.20000000  1
  Mn  Mn517  1  1.00000000  0.60000000  0.40000000  1
  Mn  Mn518  1  0.00000000  0.60000000  0.60000000  1
  Mn  Mn519  1  0.00000000  0.60000000  0.80000000  1
  Mn  Mn520  1  1.00000000  0.80000000  0.00000000  1
  Mn  Mn521  1  1.00000000  0.80000000  0.20000000  1
  Mn  Mn522  1  0.00000000  0.80000000  0.40000000  1
  Mn  Mn523  1  0.00000000  0.80000000  0.60000000  1
  Mn  Mn524  1  0.00000000  0.80000000  0.80000000  1
  Mn  Mn525  1  0.20000000  0.00000000  0.00000000  1
  Mn  Mn526  1  0.20000000  0.00000000  0.20000000  1
  Mn  Mn527  1  0.20000000  0.00000000  0.40000000  1
  Mn  Mn528  1  0.20000000  0.00000000  0.60000000  1
  Mn  Mn529  1  0.20000000  0.00000000  0.80000000  1
  Mn  Mn530  1  0.20000000  0.20000000  0.00000000  1
  Mn  Mn531  1  0.20000000  0.20000000  0.20000000  1
  Mn  Mn532  1  0.20000000  0.20000000  0.40000000  1
  Mn  Mn533  1  0.20000000  0.20000000  0.60000000  1
  Mn  Mn534  1  0.20000000  0.20000000  0.80000000  1
  Mn  Mn535  1  0.20000000  0.40000000  0.00000000  1
  Mn  Mn536  1  0.20000000  0.40000000  0.20000000  1
  Mn  Mn537  1  0.20000000  0.40000000  0.40000000  1
  Mn  Mn538  1  0.20000000  0.40000000  0.60000000  1
  Mn  Mn539  1  0.20000000  0.40000000  0.80000000  1
  Mn  Mn540  1  0.20000000  0.60000000  0.00000000  1
  Mn  Mn541  1  0.20000000  0.60000000  0.20000000  1
  Mn  Mn542  1  0.20000000  0.60000000  0.40000000  1
  Mn  Mn543  1  0.20000000  0.60000000  0.60000000  1
  Mn  Mn544  1  0.20000000  0.60000000  0.80000000  1
  Mn  Mn545  1  0.20000000  0.80000000  0.00000000  1
  Mn  Mn546  1  0.20000000  0.80000000  0.20000000  1
  Mn  Mn547  1  0.20000000  0.80000000  0.40000000  1
  Mn  Mn548  1  0.20000000  0.80000000  0.60000000  1
  Mn  Mn549  1  0.20000000  0.80000000  0.80000000  1
  Mn  Mn550  1  0.40000000  0.00000000  0.00000000  1
  Mn  Mn551  1  0.40000000  0.00000000  0.20000000  1
  Mn  Mn552  1  0.40000000  0.00000000  0.40000000  1
  Mn  Mn553  1  0.40000000  0.00000000  0.60000000  1
  Mn  Mn554  1  0.40000000  0.00000000  0.80000000  1
  Mn  Mn555  1  0.40000000  0.20000000  0.00000000  1
  Mn  Mn556  1  0.40000000  0.20000000  0.20000000  1
  Mn  Mn557  1  0.40000000  0.20000000  0.40000000  1
  Mn  Mn558  1  0.40000000  0.20000000  0.60000000  1
  Mn  Mn559  1  0.40000000  0.20000000  0.80000000  1
  Mn  Mn560  1  0.40000000  0.40000000  0.00000000  1
  Mn  Mn561  1  0.40000000  0.40000000  0.20000000  1
  Mn  Mn562  1  0.40000000  0.40000000  0.40000000  1
  Mn  Mn563  1  0.40000000  0.40000000  0.60000000  1
  Mn  Mn564  1  0.40000000  0.40000000  0.80000000  1
  Mn  Mn565  1  0.40000000  0.60000000  0.00000000  1
  Mn  Mn566  1  0.40000000  0.60000000  0.20000000  1
  Mn  Mn567  1  0.40000000  0.60000000  0.40000000  1
  Mn  Mn568  1  0.40000000  0.60000000  0.60000000  1
  Mn  Mn569  1  0.40000000  0.60000000  0.80000000  1
  Mn  Mn570  1  0.40000000  0.80000000  0.00000000  1
  Mn  Mn571  1  0.40000000  0.80000000  0.20000000  1
  Mn  Mn572  1  0.40000000  0.80000000  0.40000000  1
  Mn  Mn573  1  0.40000000  0.80000000  0.60000000  1
  Mn  Mn574  1  0.40000000  0.80000000  0.80000000  1
  Mn  Mn575  1  0.60000000  0.00000000  0.00000000  1
  Mn  Mn576  1  0.60000000  0.00000000  0.20000000  1
  Mn  Mn577  1  0.60000000  0.00000000  0.40000000  1
  Mn  Mn578  1  0.60000000  0.00000000  0.60000000  1
  Mn  Mn579  1  0.60000000  0.00000000  0.80000000  1
  Mn  Mn580  1  0.60000000  0.20000000  0.00000000  1
  Mn  Mn581  1  0.60000000  0.20000000  0.20000000  1
  Mn  Mn582  1  0.60000000  0.20000000  0.40000000  1
  Mn  Mn583  1  0.60000000  0.20000000  0.60000000  1
  Mn  Mn584  1  0.60000000  0.20000000  0.80000000  1
  Mn  Mn585  1  0.60000000  0.40000000  0.00000000  1
  Mn  Mn586  1  0.60000000  0.40000000  0.20000000  1
  Mn  Mn587  1  0.60000000  0.40000000  0.40000000  1
  Mn  Mn588  1  0.60000000  0.40000000  0.60000000  1
  Mn  Mn589  1  0.60000000  0.40000000  0.80000000  1
  Mn  Mn590  1  0.60000000  0.60000000  0.00000000  1
  Mn  Mn591  1  0.60000000  0.60000000  0.20000000  1
  Mn  Mn592  1  0.60000000  0.60000000  0.40000000  1
  Mn  Mn593  1  0.60000000  0.60000000  0.60000000  1
  Mn  Mn594  1  0.60000000  0.60000000  0.80000000  1
  Mn  Mn595  1  0.60000000  0.80000000  0.00000000  1
  Mn  Mn596  1  0.60000000  0.80000000  0.20000000  1
  Mn  Mn597  1  0.60000000  0.80000000  0.40000000  1
  Mn  Mn598  1  0.60000000  0.80000000  0.60000000  1
  Mn  Mn599  1  0.60000000  0.80000000  0.80000000  1
  Mn  Mn600  1  0.80000000  0.00000000  0.00000000  1
  Mn  Mn601  1  0.80000000  0.00000000  0.20000000  1
  Mn  Mn602  1  0.80000000  0.00000000  0.40000000  1
  Mn  Mn603  1  0.80000000  0.00000000  0.60000000  1
  Mn  Mn604  1  0.80000000  0.00000000  0.80000000  1
  Mn  Mn605  1  0.80000000  0.20000000  0.00000000  1
  Mn  Mn606  1  0.80000000  0.20000000  0.20000000  1
  Mn  Mn607  1  0.80000000  0.20000000  0.40000000  1
  Mn  Mn608  1  0.80000000  0.20000000  0.60000000  1
  Mn  Mn609  1  0.80000000  0.20000000  0.80000000  1
  Mn  Mn610  1  0.80000000  0.40000000  0.00000000  1
  Mn  Mn611  1  0.80000000  0.40000000  0.20000000  1
  Mn  Mn612  1  0.80000000  0.40000000  0.40000000  1
  Mn  Mn613  1  0.80000000  0.40000000  0.60000000  1
  Mn  Mn614  1  0.80000000  0.40000000  0.80000000  1
  Mn  Mn615  1  0.80000000  0.60000000  0.00000000  1
  Mn  Mn616  1  0.80000000  0.60000000  0.20000000  1
  Mn  Mn617  1  0.80000000  0.60000000  0.40000000  1
  Mn  Mn618  1  0.80000000  0.60000000  0.60000000  1
  Mn  Mn619  1  0.80000000  0.60000000  0.80000000  1
  Mn  Mn620  1  0.80000000  0.80000000  0.00000000  1
  Mn  Mn621  1  0.80000000  0.80000000  0.20000000  1
  Mn  Mn622  1  0.80000000  0.80000000  0.40000000  1
  Mn  Mn623  1  0.80000000  0.80000000  0.60000000  1
  Mn  Mn624  1  0.80000000  0.80000000  0.80000000  1
  Mn  Mn625  1  0.00000000  0.00000000  0.10000000  1
  Mn  Mn626  1  0.00000000  0.00000000  0.30000000  1
  Mn  Mn627  1  0.00000000  0.00000000  0.50000000  1
  Mn  Mn628  1  0.00000000  0.00000000  0.70000000  1
  Mn  Mn629  1  0.00000000  0.00000000  0.90000000  1
  Mn  Mn630  1  1.00000000  0.20000000  0.10000000  1
  Mn  Mn631  1  0.00000000  0.20000000  0.30000000  1
  Mn  Mn632  1  1.00000000  0.20000000  0.50000000  1
  Mn  Mn633  1  0.00000000  0.20000000  0.70000000  1
  Mn  Mn634  1  0.00000000  0.20000000  0.90000000  1
  Mn  Mn635  1  1.00000000  0.40000000  0.10000000  1
  Mn  Mn636  1  1.00000000  0.40000000  0.30000000  1
  Mn  Mn637  1  1.00000000  0.40000000  0.50000000  1
  Mn  Mn638  1  1.00000000  0.40000000  0.70000000  1
  Mn  Mn639  1  1.00000000  0.40000000  0.90000000  1
  Mn  Mn640  1  1.00000000  0.60000000  0.10000000  1
  Mn  Mn641  1  0.00000000  0.60000000  0.30000000  1
  Mn  Mn642  1  1.00000000  0.60000000  0.50000000  1
  Mn  Mn643  1  0.00000000  0.60000000  0.70000000  1
  Mn  Mn644  1  0.00000000  0.60000000  0.90000000  1
  Mn  Mn645  1  1.00000000  0.80000000  0.10000000  1
  Mn  Mn646  1  1.00000000  0.80000000  0.30000000  1
  Mn  Mn647  1  1.00000000  0.80000000  0.50000000  1
  Mn  Mn648  1  1.00000000  0.80000000  0.70000000  1
  Mn  Mn649  1  1.00000000  0.80000000  0.90000000  1
  Mn  Mn650  1  0.20000000  0.00000000  0.10000000  1
  Mn  Mn651  1  0.20000000  0.00000000  0.30000000  1
  Mn  Mn652  1  0.20000000  0.00000000  0.50000000  1
  Mn  Mn653  1  0.20000000  0.00000000  0.70000000  1
  Mn  Mn654  1  0.20000000  0.00000000  0.90000000  1
  Mn  Mn655  1  0.20000000  0.20000000  0.10000000  1
  Mn  Mn656  1  0.20000000  0.20000000  0.30000000  1
  Mn  Mn657  1  0.20000000  0.20000000  0.50000000  1
  Mn  Mn658  1  0.20000000  0.20000000  0.70000000  1
  Mn  Mn659  1  0.20000000  0.20000000  0.90000000  1
  Mn  Mn660  1  0.20000000  0.40000000  0.10000000  1
  Mn  Mn661  1  0.20000000  0.40000000  0.30000000  1
  Mn  Mn662  1  0.20000000  0.40000000  0.50000000  1
  Mn  Mn663  1  0.20000000  0.40000000  0.70000000  1
  Mn  Mn664  1  0.20000000  0.40000000  0.90000000  1
  Mn  Mn665  1  0.20000000  0.60000000  0.10000000  1
  Mn  Mn666  1  0.20000000  0.60000000  0.30000000  1
  Mn  Mn667  1  0.20000000  0.60000000  0.50000000  1
  Mn  Mn668  1  0.20000000  0.60000000  0.70000000  1
  Mn  Mn669  1  0.20000000  0.60000000  0.90000000  1
  Mn  Mn670  1  0.20000000  0.80000000  0.10000000  1
  Mn  Mn671  1  0.20000000  0.80000000  0.30000000  1
  Mn  Mn672  1  0.20000000  0.80000000  0.50000000  1
  Mn  Mn673  1  0.20000000  0.80000000  0.70000000  1
  Mn  Mn674  1  0.20000000  0.80000000  0.90000000  1
  Mn  Mn675  1  0.40000000  0.00000000  0.10000000  1
  Mn  Mn676  1  0.40000000  0.00000000  0.30000000  1
  Mn  Mn677  1  0.40000000  0.00000000  0.50000000  1
  Mn  Mn678  1  0.40000000  0.00000000  0.70000000  1
  Mn  Mn679  1  0.40000000  0.00000000  0.90000000  1
  Mn  Mn680  1  0.40000000  0.20000000  0.10000000  1
  Mn  Mn681  1  0.40000000  0.20000000  0.30000000  1
  Mn  Mn682  1  0.40000000  0.20000000  0.50000000  1
  Mn  Mn683  1  0.40000000  0.20000000  0.70000000  1
  Mn  Mn684  1  0.40000000  0.20000000  0.90000000  1
  Mn  Mn685  1  0.40000000  0.40000000  0.10000000  1
  Mn  Mn686  1  0.40000000  0.40000000  0.30000000  1
  Mn  Mn687  1  0.40000000  0.40000000  0.50000000  1
  Mn  Mn688  1  0.40000000  0.40000000  0.70000000  1
  Mn  Mn689  1  0.40000000  0.40000000  0.90000000  1
  Mn  Mn690  1  0.40000000  0.60000000  0.10000000  1
  Mn  Mn691  1  0.40000000  0.60000000  0.30000000  1
  Mn  Mn692  1  0.40000000  0.60000000  0.50000000  1
  Mn  Mn693  1  0.40000000  0.60000000  0.70000000  1
  Mn  Mn694  1  0.40000000  0.60000000  0.90000000  1
  Mn  Mn695  1  0.40000000  0.80000000  0.10000000  1
  Mn  Mn696  1  0.40000000  0.80000000  0.30000000  1
  Mn  Mn697  1  0.40000000  0.80000000  0.50000000  1
  Mn  Mn698  1  0.40000000  0.80000000  0.70000000  1
  Mn  Mn699  1  0.40000000  0.80000000  0.90000000  1
  Mn  Mn700  1  0.60000000  0.00000000  0.10000000  1
  Mn  Mn701  1  0.60000000  0.00000000  0.30000000  1
  Mn  Mn702  1  0.60000000  0.00000000  0.50000000  1
  Mn  Mn703  1  0.60000000  0.00000000  0.70000000  1
  Mn  Mn704  1  0.60000000  0.00000000  0.90000000  1
  Mn  Mn705  1  0.60000000  0.20000000  0.10000000  1
  Mn  Mn706  1  0.60000000  0.20000000  0.30000000  1
  Mn  Mn707  1  0.60000000  0.20000000  0.50000000  1
  Mn  Mn708  1  0.60000000  0.20000000  0.70000000  1
  Mn  Mn709  1  0.60000000  0.20000000  0.90000000  1
  Mn  Mn710  1  0.60000000  0.40000000  0.10000000  1
  Mn  Mn711  1  0.60000000  0.40000000  0.30000000  1
  Mn  Mn712  1  0.60000000  0.40000000  0.50000000  1
  Mn  Mn713  1  0.60000000  0.40000000  0.70000000  1
  Mn  Mn714  1  0.60000000  0.40000000  0.90000000  1
  Mn  Mn715  1  0.60000000  0.60000000  0.10000000  1
  Mn  Mn716  1  0.60000000  0.60000000  0.30000000  1
  Mn  Mn717  1  0.60000000  0.60000000  0.50000000  1
  Mn  Mn718  1  0.60000000  0.60000000  0.70000000  1
  Mn  Mn719  1  0.60000000  0.60000000  0.90000000  1
  Mn  Mn720  1  0.60000000  0.80000000  0.10000000  1
  Mn  Mn721  1  0.60000000  0.80000000  0.30000000  1
  Mn  Mn722  1  0.60000000  0.80000000  0.50000000  1
  Mn  Mn723  1  0.60000000  0.80000000  0.70000000  1
  Mn  Mn724  1  0.60000000  0.80000000  0.90000000  1
  Mn  Mn725  1  0.80000000  0.00000000  0.10000000  1
  Mn  Mn726  1  0.80000000  0.00000000  0.30000000  1
  Mn  Mn727  1  0.80000000  0.00000000  0.50000000  1
  Mn  Mn728  1  0.80000000  0.00000000  0.70000000  1
  Mn  Mn729  1  0.80000000  0.00000000  0.90000000  1
  Mn  Mn730  1  0.80000000  0.20000000  0.10000000  1
  Mn  Mn731  1  0.80000000  0.20000000  0.30000000  1
  Mn  Mn732  1  0.80000000  0.20000000  0.50000000  1
  Mn  Mn733  1  0.80000000  0.20000000  0.70000000  1
  Mn  Mn734  1  0.80000000  0.20000000  0.90000000  1
  Mn  Mn735  1  0.80000000  0.40000000  0.10000000  1
  Mn  Mn736  1  0.80000000  0.40000000  0.30000000  1
  Mn  Mn737  1  0.80000000  0.40000000  0.50000000  1
  Mn  Mn738  1  0.80000000  0.40000000  0.70000000  1
  Mn  Mn739  1  0.80000000  0.40000000  0.90000000  1
  Mn  Mn740  1  0.80000000  0.60000000  0.10000000  1
  Mn  Mn741  1  0.80000000  0.60000000  0.30000000  1
  Mn  Mn742  1  0.80000000  0.60000000  0.50000000  1
  Mn  Mn743  1  0.80000000  0.60000000  0.70000000  1
  Mn  Mn744  1  0.80000000  0.60000000  0.90000000  1
  Mn  Mn745  1  0.80000000  0.80000000  0.10000000  1
  Mn  Mn746  1  0.80000000  0.80000000  0.30000000  1
  Mn  Mn747  1  0.80000000  0.80000000  0.50000000  1
  Mn  Mn748  1  0.80000000  0.80000000  0.70000000  1
  Mn  Mn749  1  0.80000000  0.80000000  0.90000000  1
  Mn  Mn750  1  0.18777100  0.05679120  0.15664860  1
  Mn  Mn751  1  0.18777100  0.05679120  0.35664860  1
  Mn  Mn752  1  0.18777100  0.05679120  0.55664860  1
  Mn  Mn753  1  0.18777100  0.05679120  0.75664860  1
  Mn  Mn754  1  0.18777100  0.05679120  0.95664860  1
  Mn  Mn755  1  0.18777100  0.25679120  0.15664860  1
  Mn  Mn756  1  0.18777100  0.25679120  0.35664860  1
  Mn  Mn757  1  0.18777100  0.25679120  0.55664860  1
  Mn  Mn758  1  0.18777100  0.25679120  0.75664860  1
  Mn  Mn759  1  0.18777100  0.25679120  0.95664860  1
  Mn  Mn760  1  0.18777100  0.45679120  0.15664860  1
  Mn  Mn761  1  0.18777100  0.45679120  0.35664860  1
  Mn  Mn762  1  0.18777100  0.45679120  0.55664860  1
  Mn  Mn763  1  0.18777100  0.45679120  0.75664860  1
  Mn  Mn764  1  0.18777100  0.45679120  0.95664860  1
  Mn  Mn765  1  0.18777100  0.65679120  0.15664860  1
  Mn  Mn766  1  0.18777100  0.65679120  0.35664860  1
  Mn  Mn767  1  0.18777100  0.65679120  0.55664860  1
  Mn  Mn768  1  0.18777100  0.65679120  0.75664860  1
  Mn  Mn769  1  0.18777100  0.65679120  0.95664860  1
  Mn  Mn770  1  0.18777100  0.85679120  0.15664860  1
  Mn  Mn771  1  0.18777100  0.85679120  0.35664860  1
  Mn  Mn772  1  0.18777100  0.85679120  0.55664860  1
  Mn  Mn773  1  0.18777100  0.85679120  0.75664860  1
  Mn  Mn774  1  0.18777100  0.85679120  0.95664860  1
  Mn  Mn775  1  0.38777100  0.05679120  0.15664860  1
  Mn  Mn776  1  0.38777100  0.05679120  0.35664860  1
  Mn  Mn777  1  0.38777100  0.05679120  0.55664860  1
  Mn  Mn778  1  0.38777100  0.05679120  0.75664860  1
  Mn  Mn779  1  0.38777100  0.05679120  0.95664860  1
  Mn  Mn780  1  0.38777100  0.25679120  0.15664860  1
  Mn  Mn781  1  0.38777100  0.25679120  0.35664860  1
  Mn  Mn782  1  0.38777100  0.25679120  0.55664860  1
  Mn  Mn783  1  0.38777100  0.25679120  0.75664860  1
  Mn  Mn784  1  0.38777100  0.25679120  0.95664860  1
  Mn  Mn785  1  0.38777100  0.45679120  0.15664860  1
  Mn  Mn786  1  0.38777100  0.45679120  0.35664860  1
  Mn  Mn787  1  0.38777100  0.45679120  0.55664860  1
  Mn  Mn788  1  0.38777100  0.45679120  0.75664860  1
  Mn  Mn789  1  0.38777100  0.45679120  0.95664860  1
  Mn  Mn790  1  0.38777100  0.65679120  0.15664860  1
  Mn  Mn791  1  0.38777100  0.65679120  0.35664860  1
  Mn  Mn792  1  0.38777100  0.65679120  0.55664860  1
  Mn  Mn793  1  0.38777100  0.65679120  0.75664860  1
  Mn  Mn794  1  0.38777100  0.65679120  0.95664860  1
  Mn  Mn795  1  0.38777100  0.85679120  0.15664860  1
  Mn  Mn796  1  0.38777100  0.85679120  0.35664860  1
  Mn  Mn797  1  0.38777100  0.85679120  0.55664860  1
  Mn  Mn798  1  0.38777100  0.85679120  0.75664860  1
  Mn  Mn799  1  0.38777100  0.85679120  0.95664860  1
  Mn  Mn800  1  0.58777100  0.05679120  0.15664860  1
  Mn  Mn801  1  0.58777100  0.05679120  0.35664860  1
  Mn  Mn802  1  0.58777100  0.05679120  0.55664860  1
  Mn  Mn803  1  0.58777100  0.05679120  0.75664860  1
  Mn  Mn804  1  0.58777100  0.05679120  0.95664860  1
  Mn  Mn805  1  0.58777100  0.25679120  0.15664860  1
  Mn  Mn806  1  0.58777100  0.25679120  0.35664860  1
  Mn  Mn807  1  0.58777100  0.25679120  0.55664860  1
  Mn  Mn808  1  0.58777100  0.25679120  0.75664860  1
  Mn  Mn809  1  0.58777100  0.25679120  0.95664860  1
  Mn  Mn810  1  0.58777100  0.45679120  0.15664860  1
  Mn  Mn811  1  0.58777100  0.45679120  0.35664860  1
  Mn  Mn812  1  0.58777100  0.45679120  0.55664860  1
  Mn  Mn813  1  0.58777100  0.45679120  0.75664860  1
  Mn  Mn814  1  0.58777100  0.45679120  0.95664860  1
  Mn  Mn815  1  0.58777100  0.65679120  0.15664860  1
  Mn  Mn816  1  0.58777100  0.65679120  0.35664860  1
  Mn  Mn817  1  0.58777100  0.65679120  0.55664860  1
  Mn  Mn818  1  0.58777100  0.65679120  0.75664860  1
  Mn  Mn819  1  0.58777100  0.65679120  0.95664860  1
  Mn  Mn820  1  0.58777100  0.85679120  0.15664860  1
  Mn  Mn821  1  0.58777100  0.85679120  0.35664860  1
  Mn  Mn822  1  0.58777100  0.85679120  0.55664860  1
  Mn  Mn823  1  0.58777100  0.85679120  0.75664860  1
  Mn  Mn824  1  0.58777100  0.85679120  0.95664860  1
  Mn  Mn825  1  0.78777100  0.05679120  0.15664860  1
  Mn  Mn826  1  0.78777100  0.05679120  0.35664860  1
  Mn  Mn827  1  0.78777100  0.05679120  0.55664860  1
  Mn  Mn828  1  0.78777100  0.05679120  0.75664860  1
  Mn  Mn829  1  0.78777100  0.05679120  0.95664860  1
  Mn  Mn830  1  0.78777100  0.25679120  0.15664860  1
  Mn  Mn831  1  0.78777100  0.25679120  0.35664860  1
  Mn  Mn832  1  0.78777100  0.25679120  0.55664860  1
  Mn  Mn833  1  0.78777100  0.25679120  0.75664860  1
  Mn  Mn834  1  0.78777100  0.25679120  0.95664860  1
  Mn  Mn835  1  0.78777100  0.45679120  0.15664860  1
  Mn  Mn836  1  0.78777100  0.45679120  0.35664860  1
  Mn  Mn837  1  0.78777100  0.45679120  0.55664860  1
  Mn  Mn838  1  0.78777100  0.45679120  0.75664860  1
  Mn  Mn839  1  0.78777100  0.45679120  0.95664860  1
  Mn  Mn840  1  0.78777100  0.65679120  0.15664860  1
  Mn  Mn841  1  0.78777100  0.65679120  0.35664860  1
  Mn  Mn842  1  0.78777100  0.65679120  0.55664860  1
  Mn  Mn843  1  0.78777100  0.65679120  0.75664860  1
  Mn  Mn844  1  0.78777100  0.65679120  0.95664860  1
  Mn  Mn845  1  0.78777100  0.85679120  0.15664860  1
  Mn  Mn846  1  0.78777100  0.85679120  0.35664860  1
  Mn  Mn847  1  0.78777100  0.85679120  0.55664860  1
  Mn  Mn848  1  0.78777100  0.85679120  0.75664860  1
  Mn  Mn849  1  0.78777100  0.85679120  0.95664860  1
  Mn  Mn850  1  0.98777100  0.05679120  0.15664860  1
  Mn  Mn851  1  0.98777100  0.05679120  0.35664860  1
  Mn  Mn852  1  0.98777100  0.05679120  0.55664860  1
  Mn  Mn853  1  0.98777100  0.05679120  0.75664860  1
  Mn  Mn854  1  0.98777100  0.05679120  0.95664860  1
  Mn  Mn855  1  0.98777100  0.25679120  0.15664860  1
  Mn  Mn856  1  0.98777100  0.25679120  0.35664860  1
  Mn  Mn857  1  0.98777100  0.25679120  0.55664860  1
  Mn  Mn858  1  0.98777100  0.25679120  0.75664860  1
  Mn  Mn859  1  0.98777100  0.25679120  0.95664860  1
  Mn  Mn860  1  0.98777100  0.45679120  0.15664860  1
  Mn  Mn861  1  0.98777100  0.45679120  0.35664860  1
  Mn  Mn862  1  0.98777100  0.45679120  0.55664860  1
  Mn  Mn863  1  0.98777100  0.45679120  0.75664860  1
  Mn  Mn864  1  0.98777100  0.45679120  0.95664860  1
  Mn  Mn865  1  0.98777100  0.65679120  0.15664860  1
  Mn  Mn866  1  0.98777100  0.65679120  0.35664860  1
  Mn  Mn867  1  0.98777100  0.65679120  0.55664860  1
  Mn  Mn868  1  0.98777100  0.65679120  0.75664860  1
  Mn  Mn869  1  0.98777100  0.65679120  0.95664860  1
  Mn  Mn870  1  0.98777100  0.85679120  0.15664860  1
  Mn  Mn871  1  0.98777100  0.85679120  0.35664860  1
  Mn  Mn872  1  0.98777100  0.85679120  0.55664860  1
  Mn  Mn873  1  0.98777100  0.85679120  0.75664860  1
  Mn  Mn874  1  0.98777100  0.85679120  0.95664860  1
  Mn  Mn875  1  0.18908620  0.12518300  0.13466520  1
  Mn  Mn876  1  0.18908620  0.12518300  0.33466520  1
  Mn  Mn877  1  0.18908620  0.12518300  0.53466520  1
  Mn  Mn878  1  0.18908620  0.12518300  0.73466520  1
  Mn  Mn879  1  0.18908620  0.12518300  0.93466520  1
  Mn  Mn880  1  0.18908620  0.32518300  0.13466520  1
  Mn  Mn881  1  0.18908620  0.32518300  0.33466520  1
  Mn  Mn882  1  0.18908620  0.32518300  0.53466520  1
  Mn  Mn883  1  0.18908620  0.32518300  0.73466520  1
  Mn  Mn884  1  0.18908620  0.32518300  0.93466520  1
  Mn  Mn885  1  0.18908620  0.52518300  0.13466520  1
  Mn  Mn886  1  0.18908620  0.52518300  0.33466520  1
  Mn  Mn887  1  0.18908620  0.52518300  0.53466520  1
  Mn  Mn888  1  0.18908620  0.52518300  0.73466520  1
  Mn  Mn889  1  0.18908620  0.52518300  0.93466520  1
  Mn  Mn890  1  0.18908620  0.72518300  0.13466520  1
  Mn  Mn891  1  0.18908620  0.72518300  0.33466520  1
  Mn  Mn892  1  0.18908620  0.72518300  0.53466520  1
  Mn  Mn893  1  0.18908620  0.72518300  0.73466520  1
  Mn  Mn894  1  0.18908620  0.72518300  0.93466520  1
  Mn  Mn895  1  0.18908620  0.92518300  0.13466520  1
  Mn  Mn896  1  0.18908620  0.92518300  0.33466520  1
  Mn  Mn897  1  0.18908620  0.92518300  0.53466520  1
  Mn  Mn898  1  0.18908620  0.92518300  0.73466520  1
  Mn  Mn899  1  0.18908620  0.92518300  0.93466520  1
  Mn  Mn900  1  0.38908620  0.12518300  0.13466520  1
  Mn  Mn901  1  0.38908620  0.12518300  0.33466520  1
  Mn  Mn902  1  0.38908620  0.12518300  0.53466520  1
  Mn  Mn903  1  0.38908620  0.12518300  0.73466520  1
  Mn  Mn904  1  0.38908620  0.12518300  0.93466520  1
  Mn  Mn905  1  0.38908620  0.32518300  0.13466520  1
  Mn  Mn906  1  0.38908620  0.32518300  0.33466520  1
  Mn  Mn907  1  0.38908620  0.32518300  0.53466520  1
  Mn  Mn908  1  0.38908620  0.32518300  0.73466520  1
  Mn  Mn909  1  0.38908620  0.32518300  0.93466520  1
  Mn  Mn910  1  0.38908620  0.52518300  0.13466520  1
  Mn  Mn911  1  0.38908620  0.52518300  0.33466520  1
  Mn  Mn912  1  0.38908620  0.52518300  0.53466520  1
  Mn  Mn913  1  0.38908620  0.52518300  0.73466520  1
  Mn  Mn914  1  0.38908620  0.52518300  0.93466520  1
  Mn  Mn915  1  0.38908620  0.72518300  0.13466520  1
  Mn  Mn916  1  0.38908620  0.72518300  0.33466520  1
  Mn  Mn917  1  0.38908620  0.72518300  0.53466520  1
  Mn  Mn918  1  0.38908620  0.72518300  0.73466520  1
  Mn  Mn919  1  0.38908620  0.72518300  0.93466520  1
  Mn  Mn920  1  0.38908620  0.92518300  0.13466520  1
  Mn  Mn921  1  0.38908620  0.92518300  0.33466520  1
  Mn  Mn922  1  0.38908620  0.92518300  0.53466520  1
  Mn  Mn923  1  0.38908620  0.92518300  0.73466520  1
  Mn  Mn924  1  0.38908620  0.92518300  0.93466520  1
  Mn  Mn925  1  0.58908620  0.12518300  0.13466520  1
  Mn  Mn926  1  0.58908620  0.12518300  0.33466520  1
  Mn  Mn927  1  0.58908620  0.12518300  0.53466520  1
  Mn  Mn928  1  0.58908620  0.12518300  0.73466520  1
  Mn  Mn929  1  0.58908620  0.12518300  0.93466520  1
  Mn  Mn930  1  0.58908620  0.32518300  0.13466520  1
  Mn  Mn931  1  0.58908620  0.32518300  0.33466520  1
  Mn  Mn932  1  0.58908620  0.32518300  0.53466520  1
  Mn  Mn933  1  0.58908620  0.32518300  0.73466520  1
  Mn  Mn934  1  0.58908620  0.32518300  0.93466520  1
  Mn  Mn935  1  0.58908620  0.52518300  0.13466520  1
  Mn  Mn936  1  0.58908620  0.52518300  0.33466520  1
  Mn  Mn937  1  0.58908620  0.52518300  0.53466520  1
  Mn  Mn938  1  0.58908620  0.52518300  0.73466520  1
  Mn  Mn939  1  0.58908620  0.52518300  0.93466520  1
  Mn  Mn940  1  0.58908620  0.72518300  0.13466520  1
  Mn  Mn941  1  0.58908620  0.72518300  0.33466520  1
  Mn  Mn942  1  0.58908620  0.72518300  0.53466520  1
  Mn  Mn943  1  0.58908620  0.72518300  0.73466520  1
  Mn  Mn944  1  0.58908620  0.72518300  0.93466520  1
  Mn  Mn945  1  0.58908620  0.92518300  0.13466520  1
  Mn  Mn946  1  0.58908620  0.92518300  0.33466520  1
  Mn  Mn947  1  0.58908620  0.92518300  0.53466520  1
  Mn  Mn948  1  0.58908620  0.92518300  0.73466520  1
  Mn  Mn949  1  0.58908620  0.92518300  0.93466520  1
  Mn  Mn950  1  0.78908620  0.12518300  0.13466520  1
  Mn  Mn951  1  0.78908620  0.12518300  0.33466520  1
  Mn  Mn952  1  0.78908620  0.12518300  0.53466520  1
  Mn  Mn953  1  0.78908620  0.12518300  0.73466520  1
  Mn  Mn954  1  0.78908620  0.12518300  0.93466520  1
  Mn  Mn955  1  0.78908620  0.32518300  0.13466520  1
  Mn  Mn956  1  0.78908620  0.32518300  0.33466520  1
  Mn  Mn957  1  0.78908620  0.32518300  0.53466520  1
  Mn  Mn958  1  0.78908620  0.32518300  0.73466520  1
  Mn  Mn959  1  0.78908620  0.32518300  0.93466520  1
  Mn  Mn960  1  0.78908620  0.52518300  0.13466520  1
  Mn  Mn961  1  0.78908620  0.52518300  0.33466520  1
  Mn  Mn962  1  0.78908620  0.52518300  0.53466520  1
  Mn  Mn963  1  0.78908620  0.52518300  0.73466520  1
  Mn  Mn964  1  0.78908620  0.52518300  0.93466520  1
  Mn  Mn965  1  0.78908620  0.72518300  0.13466520  1
  Mn  Mn966  1  0.78908620  0.72518300  0.33466520  1
  Mn  Mn967  1  0.78908620  0.72518300  0.53466520  1
  Mn  Mn968  1  0.78908620  0.72518300  0.73466520  1
  Mn  Mn969  1  0.78908620  0.72518300  0.93466520  1
  Mn  Mn970  1  0.78908620  0.92518300  0.13466520  1
  Mn  Mn971  1  0.78908620  0.92518300  0.33466520  1
  Mn  Mn972  1  0.78908620  0.92518300  0.53466520  1
  Mn  Mn973  1  0.78908620  0.92518300  0.73466520  1
  Mn  Mn974  1  0.78908620  0.92518300  0.93466520  1
  Mn  Mn975  1  0.98908620  0.12518300  0.13466520  1
  Mn  Mn976  1  0.98908620  0.12518300  0.33466520  1
  Mn  Mn977  1  0.98908620  0.12518300  0.53466520  1
  Mn  Mn978  1  0.98908620  0.12518300  0.73466520  1
  Mn  Mn979  1  0.98908620  0.12518300  0.93466520  1
  Mn  Mn980  1  0.98908620  0.32518300  0.13466520  1
  Mn  Mn981  1  0.98908620  0.32518300  0.33466520  1
  Mn  Mn982  1  0.98908620  0.32518300  0.53466520  1
  Mn  Mn983  1  0.98908620  0.32518300  0.73466520  1
  Mn  Mn984  1  0.98908620  0.32518300  0.93466520  1
  Mn  Mn985  1  0.98908620  0.52518300  0.13466520  1
  Mn  Mn986  1  0.98908620  0.52518300  0.33466520  1
  Mn  Mn987  1  0.98908620  0.52518300  0.53466520  1
  Mn  Mn988  1  0.98908620  0.52518300  0.73466520  1
  Mn  Mn989  1  0.98908620  0.52518300  0.93466520  1
  Mn  Mn990  1  0.98908620  0.72518300  0.13466520  1
  Mn  Mn991  1  0.98908620  0.72518300  0.33466520  1
  Mn  Mn992  1  0.98908620  0.72518300  0.53466520  1
  Mn  Mn993  1  0.98908620  0.72518300  0.73466520  1
  Mn  Mn994  1  0.98908620  0.72518300  0.93466520  1
  Mn  Mn995  1  0.98908620  0.92518300  0.13466520  1
  Mn  Mn996  1  0.98908620  0.92518300  0.33466520  1
  Mn  Mn997  1  0.98908620  0.92518300  0.53466520  1
  Mn  Mn998  1  0.98908620  0.92518300  0.73466520  1
  Mn  Mn999  1  0.98908620  0.92518300  0.93466520  1
  Mn  Mn1000  1  0.01091380  0.07481700  0.06533480  1
  Mn  Mn1001  1  0.01091380  0.07481700  0.26533480  1
  Mn  Mn1002  1  0.01091380  0.07481700  0.46533480  1
  Mn  Mn1003  1  0.01091380  0.07481700  0.66533480  1
  Mn  Mn1004  1  0.01091380  0.07481700  0.86533480  1
  Mn  Mn1005  1  0.01091380  0.27481700  0.06533480  1
  Mn  Mn1006  1  0.01091380  0.27481700  0.26533480  1
  Mn  Mn1007  1  0.01091380  0.27481700  0.46533480  1
  Mn  Mn1008  1  0.01091380  0.27481700  0.66533480  1
  Mn  Mn1009  1  0.01091380  0.27481700  0.86533480  1
  Mn  Mn1010  1  0.01091380  0.47481700  0.06533480  1
  Mn  Mn1011  1  0.01091380  0.47481700  0.26533480  1
  Mn  Mn1012  1  0.01091380  0.47481700  0.46533480  1
  Mn  Mn1013  1  0.01091380  0.47481700  0.66533480  1
  Mn  Mn1014  1  0.01091380  0.47481700  0.86533480  1
  Mn  Mn1015  1  0.01091380  0.67481700  0.06533480  1
  Mn  Mn1016  1  0.01091380  0.67481700  0.26533480  1
  Mn  Mn1017  1  0.01091380  0.67481700  0.46533480  1
  Mn  Mn1018  1  0.01091380  0.67481700  0.66533480  1
  Mn  Mn1019  1  0.01091380  0.67481700  0.86533480  1
  Mn  Mn1020  1  0.01091380  0.87481700  0.06533480  1
  Mn  Mn1021  1  0.01091380  0.87481700  0.26533480  1
  Mn  Mn1022  1  0.01091380  0.87481700  0.46533480  1
  Mn  Mn1023  1  0.01091380  0.87481700  0.66533480  1
  Mn  Mn1024  1  0.01091380  0.87481700  0.86533480  1
  Mn  Mn1025  1  0.21091380  0.07481700  0.06533480  1
  Mn  Mn1026  1  0.21091380  0.07481700  0.26533480  1
  Mn  Mn1027  1  0.21091380  0.07481700  0.46533480  1
  Mn  Mn1028  1  0.21091380  0.07481700  0.66533480  1
  Mn  Mn1029  1  0.21091380  0.07481700  0.86533480  1
  Mn  Mn1030  1  0.21091380  0.27481700  0.06533480  1
  Mn  Mn1031  1  0.21091380  0.27481700  0.26533480  1
  Mn  Mn1032  1  0.21091380  0.27481700  0.46533480  1
  Mn  Mn1033  1  0.21091380  0.27481700  0.66533480  1
  Mn  Mn1034  1  0.21091380  0.27481700  0.86533480  1
  Mn  Mn1035  1  0.21091380  0.47481700  0.06533480  1
  Mn  Mn1036  1  0.21091380  0.47481700  0.26533480  1
  Mn  Mn1037  1  0.21091380  0.47481700  0.46533480  1
  Mn  Mn1038  1  0.21091380  0.47481700  0.66533480  1
  Mn  Mn1039  1  0.21091380  0.47481700  0.86533480  1
  Mn  Mn1040  1  0.21091380  0.67481700  0.06533480  1
  Mn  Mn1041  1  0.21091380  0.67481700  0.26533480  1
  Mn  Mn1042  1  0.21091380  0.67481700  0.46533480  1
  Mn  Mn1043  1  0.21091380  0.67481700  0.66533480  1
  Mn  Mn1044  1  0.21091380  0.67481700  0.86533480  1
  Mn  Mn1045  1  0.21091380  0.87481700  0.06533480  1
  Mn  Mn1046  1  0.21091380  0.87481700  0.26533480  1
  Mn  Mn1047  1  0.21091380  0.87481700  0.46533480  1
  Mn  Mn1048  1  0.21091380  0.87481700  0.66533480  1
  Mn  Mn1049  1  0.21091380  0.87481700  0.86533480  1
  Mn  Mn1050  1  0.41091380  0.07481700  0.06533480  1
  Mn  Mn1051  1  0.41091380  0.07481700  0.26533480  1
  Mn  Mn1052  1  0.41091380  0.07481700  0.46533480  1
  Mn  Mn1053  1  0.41091380  0.07481700  0.66533480  1
  Mn  Mn1054  1  0.41091380  0.07481700  0.86533480  1
  Mn  Mn1055  1  0.41091380  0.27481700  0.06533480  1
  Mn  Mn1056  1  0.41091380  0.27481700  0.26533480  1
  Mn  Mn1057  1  0.41091380  0.27481700  0.46533480  1
  Mn  Mn1058  1  0.41091380  0.27481700  0.66533480  1
  Mn  Mn1059  1  0.41091380  0.27481700  0.86533480  1
  Mn  Mn1060  1  0.41091380  0.47481700  0.06533480  1
  Mn  Mn1061  1  0.41091380  0.47481700  0.26533480  1
  Mn  Mn1062  1  0.41091380  0.47481700  0.46533480  1
  Mn  Mn1063  1  0.41091380  0.47481700  0.66533480  1
  Mn  Mn1064  1  0.41091380  0.47481700  0.86533480  1
  Mn  Mn1065  1  0.41091380  0.67481700  0.06533480  1
  Mn  Mn1066  1  0.41091380  0.67481700  0.26533480  1
  Mn  Mn1067  1  0.41091380  0.67481700  0.46533480  1
  Mn  Mn1068  1  0.41091380  0.67481700  0.66533480  1
  Mn  Mn1069  1  0.41091380  0.67481700  0.86533480  1
  Mn  Mn1070  1  0.41091380  0.87481700  0.06533480  1
  Mn  Mn1071  1  0.41091380  0.87481700  0.26533480  1
  Mn  Mn1072  1  0.41091380  0.87481700  0.46533480  1
  Mn  Mn1073  1  0.41091380  0.87481700  0.66533480  1
  Mn  Mn1074  1  0.41091380  0.87481700  0.86533480  1
  Mn  Mn1075  1  0.61091380  0.07481700  0.06533480  1
  Mn  Mn1076  1  0.61091380  0.07481700  0.26533480  1
  Mn  Mn1077  1  0.61091380  0.07481700  0.46533480  1
  Mn  Mn1078  1  0.61091380  0.07481700  0.66533480  1
  Mn  Mn1079  1  0.61091380  0.07481700  0.86533480  1
  Mn  Mn1080  1  0.61091380  0.27481700  0.06533480  1
  Mn  Mn1081  1  0.61091380  0.27481700  0.26533480  1
  Mn  Mn1082  1  0.61091380  0.27481700  0.46533480  1
  Mn  Mn1083  1  0.61091380  0.27481700  0.66533480  1
  Mn  Mn1084  1  0.61091380  0.27481700  0.86533480  1
  Mn  Mn1085  1  0.61091380  0.47481700  0.06533480  1
  Mn  Mn1086  1  0.61091380  0.47481700  0.26533480  1
  Mn  Mn1087  1  0.61091380  0.47481700  0.46533480  1
  Mn  Mn1088  1  0.61091380  0.47481700  0.66533480  1
  Mn  Mn1089  1  0.61091380  0.47481700  0.86533480  1
  Mn  Mn1090  1  0.61091380  0.67481700  0.06533480  1
  Mn  Mn1091  1  0.61091380  0.67481700  0.26533480  1
  Mn  Mn1092  1  0.61091380  0.67481700  0.46533480  1
  Mn  Mn1093  1  0.61091380  0.67481700  0.66533480  1
  Mn  Mn1094  1  0.61091380  0.67481700  0.86533480  1
  Mn  Mn1095  1  0.61091380  0.87481700  0.06533480  1
  Mn  Mn1096  1  0.61091380  0.87481700  0.26533480  1
  Mn  Mn1097  1  0.61091380  0.87481700  0.46533480  1
  Mn  Mn1098  1  0.61091380  0.87481700  0.66533480  1
  Mn  Mn1099  1  0.61091380  0.87481700  0.86533480  1
  Mn  Mn1100  1  0.81091380  0.07481700  0.06533480  1
  Mn  Mn1101  1  0.81091380  0.07481700  0.26533480  1
  Mn  Mn1102  1  0.81091380  0.07481700  0.46533480  1
  Mn  Mn1103  1  0.81091380  0.07481700  0.66533480  1
  Mn  Mn1104  1  0.81091380  0.07481700  0.86533480  1
  Mn  Mn1105  1  0.81091380  0.27481700  0.06533480  1
  Mn  Mn1106  1  0.81091380  0.27481700  0.26533480  1
  Mn  Mn1107  1  0.81091380  0.27481700  0.46533480  1
  Mn  Mn1108  1  0.81091380  0.27481700  0.66533480  1
  Mn  Mn1109  1  0.81091380  0.27481700  0.86533480  1
  Mn  Mn1110  1  0.81091380  0.47481700  0.06533480  1
  Mn  Mn1111  1  0.81091380  0.47481700  0.26533480  1
  Mn  Mn1112  1  0.81091380  0.47481700  0.46533480  1
  Mn  Mn1113  1  0.81091380  0.47481700  0.66533480  1
  Mn  Mn1114  1  0.81091380  0.47481700  0.86533480  1
  Mn  Mn1115  1  0.81091380  0.67481700  0.06533480  1
  Mn  Mn1116  1  0.81091380  0.67481700  0.26533480  1
  Mn  Mn1117  1  0.81091380  0.67481700  0.46533480  1
  Mn  Mn1118  1  0.81091380  0.67481700  0.66533480  1
  Mn  Mn1119  1  0.81091380  0.67481700  0.86533480  1
  Mn  Mn1120  1  0.81091380  0.87481700  0.06533480  1
  Mn  Mn1121  1  0.81091380  0.87481700  0.26533480  1
  Mn  Mn1122  1  0.81091380  0.87481700  0.46533480  1
  Mn  Mn1123  1  0.81091380  0.87481700  0.66533480  1
  Mn  Mn1124  1  0.81091380  0.87481700  0.86533480  1
  Mn  Mn1125  1  0.01222900  0.14320880  0.04335140  1
  Mn  Mn1126  1  0.01222900  0.14320880  0.24335140  1
  Mn  Mn1127  1  0.01222900  0.14320880  0.44335140  1
  Mn  Mn1128  1  0.01222900  0.14320880  0.64335140  1
  Mn  Mn1129  1  0.01222900  0.14320880  0.84335140  1
  Mn  Mn1130  1  0.01222900  0.34320880  0.04335140  1
  Mn  Mn1131  1  0.01222900  0.34320880  0.24335140  1
  Mn  Mn1132  1  0.01222900  0.34320880  0.44335140  1
  Mn  Mn1133  1  0.01222900  0.34320880  0.64335140  1
  Mn  Mn1134  1  0.01222900  0.34320880  0.84335140  1
  Mn  Mn1135  1  0.01222900  0.54320880  0.04335140  1
  Mn  Mn1136  1  0.01222900  0.54320880  0.24335140  1
  Mn  Mn1137  1  0.01222900  0.54320880  0.44335140  1
  Mn  Mn1138  1  0.01222900  0.54320880  0.64335140  1
  Mn  Mn1139  1  0.01222900  0.54320880  0.84335140  1
  Mn  Mn1140  1  0.01222900  0.74320880  0.04335140  1
  Mn  Mn1141  1  0.01222900  0.74320880  0.24335140  1
  Mn  Mn1142  1  0.01222900  0.74320880  0.44335140  1
  Mn  Mn1143  1  0.01222900  0.74320880  0.64335140  1
  Mn  Mn1144  1  0.01222900  0.74320880  0.84335140  1
  Mn  Mn1145  1  0.01222900  0.94320880  0.04335140  1
  Mn  Mn1146  1  0.01222900  0.94320880  0.24335140  1
  Mn  Mn1147  1  0.01222900  0.94320880  0.44335140  1
  Mn  Mn1148  1  0.01222900  0.94320880  0.64335140  1
  Mn  Mn1149  1  0.01222900  0.94320880  0.84335140  1
  Mn  Mn1150  1  0.21222900  0.14320880  0.04335140  1
  Mn  Mn1151  1  0.21222900  0.14320880  0.24335140  1
  Mn  Mn1152  1  0.21222900  0.14320880  0.44335140  1
  Mn  Mn1153  1  0.21222900  0.14320880  0.64335140  1
  Mn  Mn1154  1  0.21222900  0.14320880  0.84335140  1
  Mn  Mn1155  1  0.21222900  0.34320880  0.04335140  1
  Mn  Mn1156  1  0.21222900  0.34320880  0.24335140  1
  Mn  Mn1157  1  0.21222900  0.34320880  0.44335140  1
  Mn  Mn1158  1  0.21222900  0.34320880  0.64335140  1
  Mn  Mn1159  1  0.21222900  0.34320880  0.84335140  1
  Mn  Mn1160  1  0.21222900  0.54320880  0.04335140  1
  Mn  Mn1161  1  0.21222900  0.54320880  0.24335140  1
  Mn  Mn1162  1  0.21222900  0.54320880  0.44335140  1
  Mn  Mn1163  1  0.21222900  0.54320880  0.64335140  1
  Mn  Mn1164  1  0.21222900  0.54320880  0.84335140  1
  Mn  Mn1165  1  0.21222900  0.74320880  0.04335140  1
  Mn  Mn1166  1  0.21222900  0.74320880  0.24335140  1
  Mn  Mn1167  1  0.21222900  0.74320880  0.44335140  1
  Mn  Mn1168  1  0.21222900  0.74320880  0.64335140  1
  Mn  Mn1169  1  0.21222900  0.74320880  0.84335140  1
  Mn  Mn1170  1  0.21222900  0.94320880  0.04335140  1
  Mn  Mn1171  1  0.21222900  0.94320880  0.24335140  1
  Mn  Mn1172  1  0.21222900  0.94320880  0.44335140  1
  Mn  Mn1173  1  0.21222900  0.94320880  0.64335140  1
  Mn  Mn1174  1  0.21222900  0.94320880  0.84335140  1
  Mn  Mn1175  1  0.41222900  0.14320880  0.04335140  1
  Mn  Mn1176  1  0.41222900  0.14320880  0.24335140  1
  Mn  Mn1177  1  0.41222900  0.14320880  0.44335140  1
  Mn  Mn1178  1  0.41222900  0.14320880  0.64335140  1
  Mn  Mn1179  1  0.41222900  0.14320880  0.84335140  1
  Mn  Mn1180  1  0.41222900  0.34320880  0.04335140  1
  Mn  Mn1181  1  0.41222900  0.34320880  0.24335140  1
  Mn  Mn1182  1  0.41222900  0.34320880  0.44335140  1
  Mn  Mn1183  1  0.41222900  0.34320880  0.64335140  1
  Mn  Mn1184  1  0.41222900  0.34320880  0.84335140  1
  Mn  Mn1185  1  0.41222900  0.54320880  0.04335140  1
  Mn  Mn1186  1  0.41222900  0.54320880  0.24335140  1
  Mn  Mn1187  1  0.41222900  0.54320880  0.44335140  1
  Mn  Mn1188  1  0.41222900  0.54320880  0.64335140  1
  Mn  Mn1189  1  0.41222900  0.54320880  0.84335140  1
  Mn  Mn1190  1  0.41222900  0.74320880  0.04335140  1
  Mn  Mn1191  1  0.41222900  0.74320880  0.24335140  1
  Mn  Mn1192  1  0.41222900  0.74320880  0.44335140  1
  Mn  Mn1193  1  0.41222900  0.74320880  0.64335140  1
  Mn  Mn1194  1  0.41222900  0.74320880  0.84335140  1
  Mn  Mn1195  1  0.41222900  0.94320880  0.04335140  1
  Mn  Mn1196  1  0.41222900  0.94320880  0.24335140  1
  Mn  Mn1197  1  0.41222900  0.94320880  0.44335140  1
  Mn  Mn1198  1  0.41222900  0.94320880  0.64335140  1
  Mn  Mn1199  1  0.41222900  0.94320880  0.84335140  1
  Mn  Mn1200  1  0.61222900  0.14320880  0.04335140  1
  Mn  Mn1201  1  0.61222900  0.14320880  0.24335140  1
  Mn  Mn1202  1  0.61222900  0.14320880  0.44335140  1
  Mn  Mn1203  1  0.61222900  0.14320880  0.64335140  1
  Mn  Mn1204  1  0.61222900  0.14320880  0.84335140  1
  Mn  Mn1205  1  0.61222900  0.34320880  0.04335140  1
  Mn  Mn1206  1  0.61222900  0.34320880  0.24335140  1
  Mn  Mn1207  1  0.61222900  0.34320880  0.44335140  1
  Mn  Mn1208  1  0.61222900  0.34320880  0.64335140  1
  Mn  Mn1209  1  0.61222900  0.34320880  0.84335140  1
  Mn  Mn1210  1  0.61222900  0.54320880  0.04335140  1
  Mn  Mn1211  1  0.61222900  0.54320880  0.24335140  1
  Mn  Mn1212  1  0.61222900  0.54320880  0.44335140  1
  Mn  Mn1213  1  0.61222900  0.54320880  0.64335140  1
  Mn  Mn1214  1  0.61222900  0.54320880  0.84335140  1
  Mn  Mn1215  1  0.61222900  0.74320880  0.04335140  1
  Mn  Mn1216  1  0.61222900  0.74320880  0.24335140  1
  Mn  Mn1217  1  0.61222900  0.74320880  0.44335140  1
  Mn  Mn1218  1  0.61222900  0.74320880  0.64335140  1
  Mn  Mn1219  1  0.61222900  0.74320880  0.84335140  1
  Mn  Mn1220  1  0.61222900  0.94320880  0.04335140  1
  Mn  Mn1221  1  0.61222900  0.94320880  0.24335140  1
  Mn  Mn1222  1  0.61222900  0.94320880  0.44335140  1
  Mn  Mn1223  1  0.61222900  0.94320880  0.64335140  1
  Mn  Mn1224  1  0.61222900  0.94320880  0.84335140  1
  Mn  Mn1225  1  0.81222900  0.14320880  0.04335140  1
  Mn  Mn1226  1  0.81222900  0.14320880  0.24335140  1
  Mn  Mn1227  1  0.81222900  0.14320880  0.44335140  1
  Mn  Mn1228  1  0.81222900  0.14320880  0.64335140  1
  Mn  Mn1229  1  0.81222900  0.14320880  0.84335140  1
  Mn  Mn1230  1  0.81222900  0.34320880  0.04335140  1
  Mn  Mn1231  1  0.81222900  0.34320880  0.24335140  1
  Mn  Mn1232  1  0.81222900  0.34320880  0.44335140  1
  Mn  Mn1233  1  0.81222900  0.34320880  0.64335140  1
  Mn  Mn1234  1  0.81222900  0.34320880  0.84335140  1
  Mn  Mn1235  1  0.81222900  0.54320880  0.04335140  1
  Mn  Mn1236  1  0.81222900  0.54320880  0.24335140  1
  Mn  Mn1237  1  0.81222900  0.54320880  0.44335140  1
  Mn  Mn1238  1  0.81222900  0.54320880  0.64335140  1
  Mn  Mn1239  1  0.81222900  0.54320880  0.84335140  1
  Mn  Mn1240  1  0.81222900  0.74320880  0.04335140  1
  Mn  Mn1241  1  0.81222900  0.74320880  0.24335140  1
  Mn  Mn1242  1  0.81222900  0.74320880  0.44335140  1
  Mn  Mn1243  1  0.81222900  0.74320880  0.64335140  1
  Mn  Mn1244  1  0.81222900  0.74320880  0.84335140  1
  Mn  Mn1245  1  0.81222900  0.94320880  0.04335140  1
  Mn  Mn1246  1  0.81222900  0.94320880  0.24335140  1
  Mn  Mn1247  1  0.81222900  0.94320880  0.44335140  1
  Mn  Mn1248  1  0.81222900  0.94320880  0.64335140  1
  Mn  Mn1249  1  0.81222900  0.94320880  0.84335140  1
  Se  Se1250  1  0.14243540  0.04244740  0.09582900  1
  Se  Se1251  1  0.14243540  0.04244740  0.29582900  1
  Se  Se1252  1  0.14243540  0.04244740  0.49582900  1
  Se  Se1253  1  0.14243540  0.04244740  0.69582900  1
  Se  Se1254  1  0.14243540  0.04244740  0.89582900  1
  Se  Se1255  1  0.14243540  0.24244740  0.09582900  1
  Se  Se1256  1  0.14243540  0.24244740  0.29582900  1
  Se  Se1257  1  0.14243540  0.24244740  0.49582900  1
  Se  Se1258  1  0.14243540  0.24244740  0.69582900  1
  Se  Se1259  1  0.14243540  0.24244740  0.89582900  1
  Se  Se1260  1  0.14243540  0.44244740  0.09582900  1
  Se  Se1261  1  0.14243540  0.44244740  0.29582900  1
  Se  Se1262  1  0.14243540  0.44244740  0.49582900  1
  Se  Se1263  1  0.14243540  0.44244740  0.69582900  1
  Se  Se1264  1  0.14243540  0.44244740  0.89582900  1
  Se  Se1265  1  0.14243540  0.64244740  0.09582900  1
  Se  Se1266  1  0.14243540  0.64244740  0.29582900  1
  Se  Se1267  1  0.14243540  0.64244740  0.49582900  1
  Se  Se1268  1  0.14243540  0.64244740  0.69582900  1
  Se  Se1269  1  0.14243540  0.64244740  0.89582900  1
  Se  Se1270  1  0.14243540  0.84244740  0.09582900  1
  Se  Se1271  1  0.14243540  0.84244740  0.29582900  1
  Se  Se1272  1  0.14243540  0.84244740  0.49582900  1
  Se  Se1273  1  0.14243540  0.84244740  0.69582900  1
  Se  Se1274  1  0.14243540  0.84244740  0.89582900  1
  Se  Se1275  1  0.34243540  0.04244740  0.09582900  1
  Se  Se1276  1  0.34243540  0.04244740  0.29582900  1
  Se  Se1277  1  0.34243540  0.04244740  0.49582900  1
  Se  Se1278  1  0.34243540  0.04244740  0.69582900  1
  Se  Se1279  1  0.34243540  0.04244740  0.89582900  1
  Se  Se1280  1  0.34243540  0.24244740  0.09582900  1
  Se  Se1281  1  0.34243540  0.24244740  0.29582900  1
  Se  Se1282  1  0.34243540  0.24244740  0.49582900  1
  Se  Se1283  1  0.34243540  0.24244740  0.69582900  1
  Se  Se1284  1  0.34243540  0.24244740  0.89582900  1
  Se  Se1285  1  0.34243540  0.44244740  0.09582900  1
  Se  Se1286  1  0.34243540  0.44244740  0.29582900  1
  Se  Se1287  1  0.34243540  0.44244740  0.49582900  1
  Se  Se1288  1  0.34243540  0.44244740  0.69582900  1
  Se  Se1289  1  0.34243540  0.44244740  0.89582900  1
  Se  Se1290  1  0.34243540  0.64244740  0.09582900  1
  Se  Se1291  1  0.34243540  0.64244740  0.29582900  1
  Se  Se1292  1  0.34243540  0.64244740  0.49582900  1
  Se  Se1293  1  0.34243540  0.64244740  0.69582900  1
  Se  Se1294  1  0.34243540  0.64244740  0.89582900  1
  Se  Se1295  1  0.34243540  0.84244740  0.09582900  1
  Se  Se1296  1  0.34243540  0.84244740  0.29582900  1
  Se  Se1297  1  0.34243540  0.84244740  0.49582900  1
  Se  Se1298  1  0.34243540  0.84244740  0.69582900  1
  Se  Se1299  1  0.34243540  0.84244740  0.89582900  1
  Se  Se1300  1  0.54243540  0.04244740  0.09582900  1
  Se  Se1301  1  0.54243540  0.04244740  0.29582900  1
  Se  Se1302  1  0.54243540  0.04244740  0.49582900  1
  Se  Se1303  1  0.54243540  0.04244740  0.69582900  1
  Se  Se1304  1  0.54243540  0.04244740  0.89582900  1
  Se  Se1305  1  0.54243540  0.24244740  0.09582900  1
  Se  Se1306  1  0.54243540  0.24244740  0.29582900  1
  Se  Se1307  1  0.54243540  0.24244740  0.49582900  1
  Se  Se1308  1  0.54243540  0.24244740  0.69582900  1
  Se  Se1309  1  0.54243540  0.24244740  0.89582900  1
  Se  Se1310  1  0.54243540  0.44244740  0.09582900  1
  Se  Se1311  1  0.54243540  0.44244740  0.29582900  1
  Se  Se1312  1  0.54243540  0.44244740  0.49582900  1
  Se  Se1313  1  0.54243540  0.44244740  0.69582900  1
  Se  Se1314  1  0.54243540  0.44244740  0.89582900  1
  Se  Se1315  1  0.54243540  0.64244740  0.09582900  1
  Se  Se1316  1  0.54243540  0.64244740  0.29582900  1
  Se  Se1317  1  0.54243540  0.64244740  0.49582900  1
  Se  Se1318  1  0.54243540  0.64244740  0.69582900  1
  Se  Se1319  1  0.54243540  0.64244740  0.89582900  1
  Se  Se1320  1  0.54243540  0.84244740  0.09582900  1
  Se  Se1321  1  0.54243540  0.84244740  0.29582900  1
  Se  Se1322  1  0.54243540  0.84244740  0.49582900  1
  Se  Se1323  1  0.54243540  0.84244740  0.69582900  1
  Se  Se1324  1  0.54243540  0.84244740  0.89582900  1
  Se  Se1325  1  0.74243540  0.04244740  0.09582900  1
  Se  Se1326  1  0.74243540  0.04244740  0.29582900  1
  Se  Se1327  1  0.74243540  0.04244740  0.49582900  1
  Se  Se1328  1  0.74243540  0.04244740  0.69582900  1
  Se  Se1329  1  0.74243540  0.04244740  0.89582900  1
  Se  Se1330  1  0.74243540  0.24244740  0.09582900  1
  Se  Se1331  1  0.74243540  0.24244740  0.29582900  1
  Se  Se1332  1  0.74243540  0.24244740  0.49582900  1
  Se  Se1333  1  0.74243540  0.24244740  0.69582900  1
  Se  Se1334  1  0.74243540  0.24244740  0.89582900  1
  Se  Se1335  1  0.74243540  0.44244740  0.09582900  1
  Se  Se1336  1  0.74243540  0.44244740  0.29582900  1
  Se  Se1337  1  0.74243540  0.44244740  0.49582900  1
  Se  Se1338  1  0.74243540  0.44244740  0.69582900  1
  Se  Se1339  1  0.74243540  0.44244740  0.89582900  1
  Se  Se1340  1  0.74243540  0.64244740  0.09582900  1
  Se  Se1341  1  0.74243540  0.64244740  0.29582900  1
  Se  Se1342  1  0.74243540  0.64244740  0.49582900  1
  Se  Se1343  1  0.74243540  0.64244740  0.69582900  1
  Se  Se1344  1  0.74243540  0.64244740  0.89582900  1
  Se  Se1345  1  0.74243540  0.84244740  0.09582900  1
  Se  Se1346  1  0.74243540  0.84244740  0.29582900  1
  Se  Se1347  1  0.74243540  0.84244740  0.49582900  1
  Se  Se1348  1  0.74243540  0.84244740  0.69582900  1
  Se  Se1349  1  0.74243540  0.84244740  0.89582900  1
  Se  Se1350  1  0.94243540  0.04244740  0.09582900  1
  Se  Se1351  1  0.94243540  0.04244740  0.29582900  1
  Se  Se1352  1  0.94243540  0.04244740  0.49582900  1
  Se  Se1353  1  0.94243540  0.04244740  0.69582900  1
  Se  Se1354  1  0.94243540  0.04244740  0.89582900  1
  Se  Se1355  1  0.94243540  0.24244740  0.09582900  1
  Se  Se1356  1  0.94243540  0.24244740  0.29582900  1
  Se  Se1357  1  0.94243540  0.24244740  0.49582900  1
  Se  Se1358  1  0.94243540  0.24244740  0.69582900  1
  Se  Se1359  1  0.94243540  0.24244740  0.89582900  1
  Se  Se1360  1  0.94243540  0.44244740  0.09582900  1
  Se  Se1361  1  0.94243540  0.44244740  0.29582900  1
  Se  Se1362  1  0.94243540  0.44244740  0.49582900  1
  Se  Se1363  1  0.94243540  0.44244740  0.69582900  1
  Se  Se1364  1  0.94243540  0.44244740  0.89582900  1
  Se  Se1365  1  0.94243540  0.64244740  0.09582900  1
  Se  Se1366  1  0.94243540  0.64244740  0.29582900  1
  Se  Se1367  1  0.94243540  0.64244740  0.49582900  1
  Se  Se1368  1  0.94243540  0.64244740  0.69582900  1
  Se  Se1369  1  0.94243540  0.64244740  0.89582900  1
  Se  Se1370  1  0.94243540  0.84244740  0.09582900  1
  Se  Se1371  1  0.94243540  0.84244740  0.29582900  1
  Se  Se1372  1  0.94243540  0.84244740  0.49582900  1
  Se  Se1373  1  0.94243540  0.84244740  0.69582900  1
  Se  Se1374  1  0.94243540  0.84244740  0.89582900  1
  Se  Se1375  1  0.14538880  0.04915820  0.01343100  1
  Se  Se1376  1  0.14538880  0.04915820  0.21343100  1
  Se  Se1377  1  0.14538880  0.04915820  0.41343100  1
  Se  Se1378  1  0.14538880  0.04915820  0.61343100  1
  Se  Se1379  1  0.14538880  0.04915820  0.81343100  1
  Se  Se1380  1  0.14538880  0.24915820  0.01343100  1
  Se  Se1381  1  0.14538880  0.24915820  0.21343100  1
  Se  Se1382  1  0.14538880  0.24915820  0.41343100  1
  Se  Se1383  1  0.14538880  0.24915820  0.61343100  1
  Se  Se1384  1  0.14538880  0.24915820  0.81343100  1
  Se  Se1385  1  0.14538880  0.44915820  0.01343100  1
  Se  Se1386  1  0.14538880  0.44915820  0.21343100  1
  Se  Se1387  1  0.14538880  0.44915820  0.41343100  1
  Se  Se1388  1  0.14538880  0.44915820  0.61343100  1
  Se  Se1389  1  0.14538880  0.44915820  0.81343100  1
  Se  Se1390  1  0.14538880  0.64915820  0.01343100  1
  Se  Se1391  1  0.14538880  0.64915820  0.21343100  1
  Se  Se1392  1  0.14538880  0.64915820  0.41343100  1
  Se  Se1393  1  0.14538880  0.64915820  0.61343100  1
  Se  Se1394  1  0.14538880  0.64915820  0.81343100  1
  Se  Se1395  1  0.14538880  0.84915820  0.01343100  1
  Se  Se1396  1  0.14538880  0.84915820  0.21343100  1
  Se  Se1397  1  0.14538880  0.84915820  0.41343100  1
  Se  Se1398  1  0.14538880  0.84915820  0.61343100  1
  Se  Se1399  1  0.14538880  0.84915820  0.81343100  1
  Se  Se1400  1  0.34538880  0.04915820  0.01343100  1
  Se  Se1401  1  0.34538880  0.04915820  0.21343100  1
  Se  Se1402  1  0.34538880  0.04915820  0.41343100  1
  Se  Se1403  1  0.34538880  0.04915820  0.61343100  1
  Se  Se1404  1  0.34538880  0.04915820  0.81343100  1
  Se  Se1405  1  0.34538880  0.24915820  0.01343100  1
  Se  Se1406  1  0.34538880  0.24915820  0.21343100  1
  Se  Se1407  1  0.34538880  0.24915820  0.41343100  1
  Se  Se1408  1  0.34538880  0.24915820  0.61343100  1
  Se  Se1409  1  0.34538880  0.24915820  0.81343100  1
  Se  Se1410  1  0.34538880  0.44915820  0.01343100  1
  Se  Se1411  1  0.34538880  0.44915820  0.21343100  1
  Se  Se1412  1  0.34538880  0.44915820  0.41343100  1
  Se  Se1413  1  0.34538880  0.44915820  0.61343100  1
  Se  Se1414  1  0.34538880  0.44915820  0.81343100  1
  Se  Se1415  1  0.34538880  0.64915820  0.01343100  1
  Se  Se1416  1  0.34538880  0.64915820  0.21343100  1
  Se  Se1417  1  0.34538880  0.64915820  0.41343100  1
  Se  Se1418  1  0.34538880  0.64915820  0.61343100  1
  Se  Se1419  1  0.34538880  0.64915820  0.81343100  1
  Se  Se1420  1  0.34538880  0.84915820  0.01343100  1
  Se  Se1421  1  0.34538880  0.84915820  0.21343100  1
  Se  Se1422  1  0.34538880  0.84915820  0.41343100  1
  Se  Se1423  1  0.34538880  0.84915820  0.61343100  1
  Se  Se1424  1  0.34538880  0.84915820  0.81343100  1
  Se  Se1425  1  0.54538880  0.04915820  0.01343100  1
  Se  Se1426  1  0.54538880  0.04915820  0.21343100  1
  Se  Se1427  1  0.54538880  0.04915820  0.41343100  1
  Se  Se1428  1  0.54538880  0.04915820  0.61343100  1
  Se  Se1429  1  0.54538880  0.04915820  0.81343100  1
  Se  Se1430  1  0.54538880  0.24915820  0.01343100  1
  Se  Se1431  1  0.54538880  0.24915820  0.21343100  1
  Se  Se1432  1  0.54538880  0.24915820  0.41343100  1
  Se  Se1433  1  0.54538880  0.24915820  0.61343100  1
  Se  Se1434  1  0.54538880  0.24915820  0.81343100  1
  Se  Se1435  1  0.54538880  0.44915820  0.01343100  1
  Se  Se1436  1  0.54538880  0.44915820  0.21343100  1
  Se  Se1437  1  0.54538880  0.44915820  0.41343100  1
  Se  Se1438  1  0.54538880  0.44915820  0.61343100  1
  Se  Se1439  1  0.54538880  0.44915820  0.81343100  1
  Se  Se1440  1  0.54538880  0.64915820  0.01343100  1
  Se  Se1441  1  0.54538880  0.64915820  0.21343100  1
  Se  Se1442  1  0.54538880  0.64915820  0.41343100  1
  Se  Se1443  1  0.54538880  0.64915820  0.61343100  1
  Se  Se1444  1  0.54538880  0.64915820  0.81343100  1
  Se  Se1445  1  0.54538880  0.84915820  0.01343100  1
  Se  Se1446  1  0.54538880  0.84915820  0.21343100  1
  Se  Se1447  1  0.54538880  0.84915820  0.41343100  1
  Se  Se1448  1  0.54538880  0.84915820  0.61343100  1
  Se  Se1449  1  0.54538880  0.84915820  0.81343100  1
  Se  Se1450  1  0.74538880  0.04915820  0.01343100  1
  Se  Se1451  1  0.74538880  0.04915820  0.21343100  1
  Se  Se1452  1  0.74538880  0.04915820  0.41343100  1
  Se  Se1453  1  0.74538880  0.04915820  0.61343100  1
  Se  Se1454  1  0.74538880  0.04915820  0.81343100  1
  Se  Se1455  1  0.74538880  0.24915820  0.01343100  1
  Se  Se1456  1  0.74538880  0.24915820  0.21343100  1
  Se  Se1457  1  0.74538880  0.24915820  0.41343100  1
  Se  Se1458  1  0.74538880  0.24915820  0.61343100  1
  Se  Se1459  1  0.74538880  0.24915820  0.81343100  1
  Se  Se1460  1  0.74538880  0.44915820  0.01343100  1
  Se  Se1461  1  0.74538880  0.44915820  0.21343100  1
  Se  Se1462  1  0.74538880  0.44915820  0.41343100  1
  Se  Se1463  1  0.74538880  0.44915820  0.61343100  1
  Se  Se1464  1  0.74538880  0.44915820  0.81343100  1
  Se  Se1465  1  0.74538880  0.64915820  0.01343100  1
  Se  Se1466  1  0.74538880  0.64915820  0.21343100  1
  Se  Se1467  1  0.74538880  0.64915820  0.41343100  1
  Se  Se1468  1  0.74538880  0.64915820  0.61343100  1
  Se  Se1469  1  0.74538880  0.64915820  0.81343100  1
  Se  Se1470  1  0.74538880  0.84915820  0.01343100  1
  Se  Se1471  1  0.74538880  0.84915820  0.21343100  1
  Se  Se1472  1  0.74538880  0.84915820  0.41343100  1
  Se  Se1473  1  0.74538880  0.84915820  0.61343100  1
  Se  Se1474  1  0.74538880  0.84915820  0.81343100  1
  Se  Se1475  1  0.94538880  0.04915820  0.01343100  1
  Se  Se1476  1  0.94538880  0.04915820  0.21343100  1
  Se  Se1477  1  0.94538880  0.04915820  0.41343100  1
  Se  Se1478  1  0.94538880  0.04915820  0.61343100  1
  Se  Se1479  1  0.94538880  0.04915820  0.81343100  1
  Se  Se1480  1  0.94538880  0.24915820  0.01343100  1
  Se  Se1481  1  0.94538880  0.24915820  0.21343100  1
  Se  Se1482  1  0.94538880  0.24915820  0.41343100  1
  Se  Se1483  1  0.94538880  0.24915820  0.61343100  1
  Se  Se1484  1  0.94538880  0.24915820  0.81343100  1
  Se  Se1485  1  0.94538880  0.44915820  0.01343100  1
  Se  Se1486  1  0.94538880  0.44915820  0.21343100  1
  Se  Se1487  1  0.94538880  0.44915820  0.41343100  1
  Se  Se1488  1  0.94538880  0.44915820  0.61343100  1
  Se  Se1489  1  0.94538880  0.44915820  0.81343100  1
  Se  Se1490  1  0.94538880  0.64915820  0.01343100  1
  Se  Se1491  1  0.94538880  0.64915820  0.21343100  1
  Se  Se1492  1  0.94538880  0.64915820  0.41343100  1
  Se  Se1493  1  0.94538880  0.64915820  0.61343100  1
  Se  Se1494  1  0.94538880  0.64915820  0.81343100  1
  Se  Se1495  1  0.94538880  0.84915820  0.01343100  1
  Se  Se1496  1  0.94538880  0.84915820  0.21343100  1
  Se  Se1497  1  0.94538880  0.84915820  0.41343100  1
  Se  Se1498  1  0.94538880  0.84915820  0.61343100  1
  Se  Se1499  1  0.94538880  0.84915820  0.81343100  1
  Se  Se1500  1  0.13534220  0.14823620  0.04089660  1
  Se  Se1501  1  0.13534220  0.14823620  0.24089660  1
  Se  Se1502  1  0.13534220  0.14823620  0.44089660  1
  Se  Se1503  1  0.13534220  0.14823620  0.64089660  1
  Se  Se1504  1  0.13534220  0.14823620  0.84089660  1
  Se  Se1505  1  0.13534220  0.34823620  0.04089660  1
  Se  Se1506  1  0.13534220  0.34823620  0.24089660  1
  Se  Se1507  1  0.13534220  0.34823620  0.44089660  1
  Se  Se1508  1  0.13534220  0.34823620  0.64089660  1
  Se  Se1509  1  0.13534220  0.34823620  0.84089660  1
  Se  Se1510  1  0.13534220  0.54823620  0.04089660  1
  Se  Se1511  1  0.13534220  0.54823620  0.24089660  1
  Se  Se1512  1  0.13534220  0.54823620  0.44089660  1
  Se  Se1513  1  0.13534220  0.54823620  0.64089660  1
  Se  Se1514  1  0.13534220  0.54823620  0.84089660  1
  Se  Se1515  1  0.13534220  0.74823620  0.04089660  1
  Se  Se1516  1  0.13534220  0.74823620  0.24089660  1
  Se  Se1517  1  0.13534220  0.74823620  0.44089660  1
  Se  Se1518  1  0.13534220  0.74823620  0.64089660  1
  Se  Se1519  1  0.13534220  0.74823620  0.84089660  1
  Se  Se1520  1  0.13534220  0.94823620  0.04089660  1
  Se  Se1521  1  0.13534220  0.94823620  0.24089660  1
  Se  Se1522  1  0.13534220  0.94823620  0.44089660  1
  Se  Se1523  1  0.13534220  0.94823620  0.64089660  1
  Se  Se1524  1  0.13534220  0.94823620  0.84089660  1
  Se  Se1525  1  0.33534220  0.14823620  0.04089660  1
  Se  Se1526  1  0.33534220  0.14823620  0.24089660  1
  Se  Se1527  1  0.33534220  0.14823620  0.44089660  1
  Se  Se1528  1  0.33534220  0.14823620  0.64089660  1
  Se  Se1529  1  0.33534220  0.14823620  0.84089660  1
  Se  Se1530  1  0.33534220  0.34823620  0.04089660  1
  Se  Se1531  1  0.33534220  0.34823620  0.24089660  1
  Se  Se1532  1  0.33534220  0.34823620  0.44089660  1
  Se  Se1533  1  0.33534220  0.34823620  0.64089660  1
  Se  Se1534  1  0.33534220  0.34823620  0.84089660  1
  Se  Se1535  1  0.33534220  0.54823620  0.04089660  1
  Se  Se1536  1  0.33534220  0.54823620  0.24089660  1
  Se  Se1537  1  0.33534220  0.54823620  0.44089660  1
  Se  Se1538  1  0.33534220  0.54823620  0.64089660  1
  Se  Se1539  1  0.33534220  0.54823620  0.84089660  1
  Se  Se1540  1  0.33534220  0.74823620  0.04089660  1
  Se  Se1541  1  0.33534220  0.74823620  0.24089660  1
  Se  Se1542  1  0.33534220  0.74823620  0.44089660  1
  Se  Se1543  1  0.33534220  0.74823620  0.64089660  1
  Se  Se1544  1  0.33534220  0.74823620  0.84089660  1
  Se  Se1545  1  0.33534220  0.94823620  0.04089660  1
  Se  Se1546  1  0.33534220  0.94823620  0.24089660  1
  Se  Se1547  1  0.33534220  0.94823620  0.44089660  1
  Se  Se1548  1  0.33534220  0.94823620  0.64089660  1
  Se  Se1549  1  0.33534220  0.94823620  0.84089660  1
  Se  Se1550  1  0.53534220  0.14823620  0.04089660  1
  Se  Se1551  1  0.53534220  0.14823620  0.24089660  1
  Se  Se1552  1  0.53534220  0.14823620  0.44089660  1
  Se  Se1553  1  0.53534220  0.14823620  0.64089660  1
  Se  Se1554  1  0.53534220  0.14823620  0.84089660  1
  Se  Se1555  1  0.53534220  0.34823620  0.04089660  1
  Se  Se1556  1  0.53534220  0.34823620  0.24089660  1
  Se  Se1557  1  0.53534220  0.34823620  0.44089660  1
  Se  Se1558  1  0.53534220  0.34823620  0.64089660  1
  Se  Se1559  1  0.53534220  0.34823620  0.84089660  1
  Se  Se1560  1  0.53534220  0.54823620  0.04089660  1
  Se  Se1561  1  0.53534220  0.54823620  0.24089660  1
  Se  Se1562  1  0.53534220  0.54823620  0.44089660  1
  Se  Se1563  1  0.53534220  0.54823620  0.64089660  1
  Se  Se1564  1  0.53534220  0.54823620  0.84089660  1
  Se  Se1565  1  0.53534220  0.74823620  0.04089660  1
  Se  Se1566  1  0.53534220  0.74823620  0.24089660  1
  Se  Se1567  1  0.53534220  0.74823620  0.44089660  1
  Se  Se1568  1  0.53534220  0.74823620  0.64089660  1
  Se  Se1569  1  0.53534220  0.74823620  0.84089660  1
  Se  Se1570  1  0.53534220  0.94823620  0.04089660  1
  Se  Se1571  1  0.53534220  0.94823620  0.24089660  1
  Se  Se1572  1  0.53534220  0.94823620  0.44089660  1
  Se  Se1573  1  0.53534220  0.94823620  0.64089660  1
  Se  Se1574  1  0.53534220  0.94823620  0.84089660  1
  Se  Se1575  1  0.73534220  0.14823620  0.04089660  1
  Se  Se1576  1  0.73534220  0.14823620  0.24089660  1
  Se  Se1577  1  0.73534220  0.14823620  0.44089660  1
  Se  Se1578  1  0.73534220  0.14823620  0.64089660  1
  Se  Se1579  1  0.73534220  0.14823620  0.84089660  1
  Se  Se1580  1  0.73534220  0.34823620  0.04089660  1
  Se  Se1581  1  0.73534220  0.34823620  0.24089660  1
  Se  Se1582  1  0.73534220  0.34823620  0.44089660  1
  Se  Se1583  1  0.73534220  0.34823620  0.64089660  1
  Se  Se1584  1  0.73534220  0.34823620  0.84089660  1
  Se  Se1585  1  0.73534220  0.54823620  0.04089660  1
  Se  Se1586  1  0.73534220  0.54823620  0.24089660  1
  Se  Se1587  1  0.73534220  0.54823620  0.44089660  1
  Se  Se1588  1  0.73534220  0.54823620  0.64089660  1
  Se  Se1589  1  0.73534220  0.54823620  0.84089660  1
  Se  Se1590  1  0.73534220  0.74823620  0.04089660  1
  Se  Se1591  1  0.73534220  0.74823620  0.24089660  1
  Se  Se1592  1  0.73534220  0.74823620  0.44089660  1
  Se  Se1593  1  0.73534220  0.74823620  0.64089660  1
  Se  Se1594  1  0.73534220  0.74823620  0.84089660  1
  Se  Se1595  1  0.73534220  0.94823620  0.04089660  1
  Se  Se1596  1  0.73534220  0.94823620  0.24089660  1
  Se  Se1597  1  0.73534220  0.94823620  0.44089660  1
  Se  Se1598  1  0.73534220  0.94823620  0.64089660  1
  Se  Se1599  1  0.73534220  0.94823620  0.84089660  1
  Se  Se1600  1  0.93534220  0.14823620  0.04089660  1
  Se  Se1601  1  0.93534220  0.14823620  0.24089660  1
  Se  Se1602  1  0.93534220  0.14823620  0.44089660  1
  Se  Se1603  1  0.93534220  0.14823620  0.64089660  1
  Se  Se1604  1  0.93534220  0.14823620  0.84089660  1
  Se  Se1605  1  0.93534220  0.34823620  0.04089660  1
  Se  Se1606  1  0.93534220  0.34823620  0.24089660  1
  Se  Se1607  1  0.93534220  0.34823620  0.44089660  1
  Se  Se1608  1  0.93534220  0.34823620  0.64089660  1
  Se  Se1609  1  0.93534220  0.34823620  0.84089660  1
  Se  Se1610  1  0.93534220  0.54823620  0.04089660  1
  Se  Se1611  1  0.93534220  0.54823620  0.24089660  1
  Se  Se1612  1  0.93534220  0.54823620  0.44089660  1
  Se  Se1613  1  0.93534220  0.54823620  0.64089660  1
  Se  Se1614  1  0.93534220  0.54823620  0.84089660  1
  Se  Se1615  1  0.93534220  0.74823620  0.04089660  1
  Se  Se1616  1  0.93534220  0.74823620  0.24089660  1
  Se  Se1617  1  0.93534220  0.74823620  0.44089660  1
  Se  Se1618  1  0.93534220  0.74823620  0.64089660  1
  Se  Se1619  1  0.93534220  0.74823620  0.84089660  1
  Se  Se1620  1  0.93534220  0.94823620  0.04089660  1
  Se  Se1621  1  0.93534220  0.94823620  0.24089660  1
  Se  Se1622  1  0.93534220  0.94823620  0.44089660  1
  Se  Se1623  1  0.93534220  0.94823620  0.64089660  1
  Se  Se1624  1  0.93534220  0.94823620  0.84089660  1
  Se  Se1625  1  0.13608640  0.16357060  0.14597400  1
  Se  Se1626  1  0.13608640  0.16357060  0.34597400  1
  Se  Se1627  1  0.13608640  0.16357060  0.54597400  1
  Se  Se1628  1  0.13608640  0.16357060  0.74597400  1
  Se  Se1629  1  0.13608640  0.16357060  0.94597400  1
  Se  Se1630  1  0.13608640  0.36357060  0.14597400  1
  Se  Se1631  1  0.13608640  0.36357060  0.34597400  1
  Se  Se1632  1  0.13608640  0.36357060  0.54597400  1
  Se  Se1633  1  0.13608640  0.36357060  0.74597400  1
  Se  Se1634  1  0.13608640  0.36357060  0.94597400  1
  Se  Se1635  1  0.13608640  0.56357060  0.14597400  1
  Se  Se1636  1  0.13608640  0.56357060  0.34597400  1
  Se  Se1637  1  0.13608640  0.56357060  0.54597400  1
  Se  Se1638  1  0.13608640  0.56357060  0.74597400  1
  Se  Se1639  1  0.13608640  0.56357060  0.94597400  1
  Se  Se1640  1  0.13608640  0.76357060  0.14597400  1
  Se  Se1641  1  0.13608640  0.76357060  0.34597400  1
  Se  Se1642  1  0.13608640  0.76357060  0.54597400  1
  Se  Se1643  1  0.13608640  0.76357060  0.74597400  1
  Se  Se1644  1  0.13608640  0.76357060  0.94597400  1
  Se  Se1645  1  0.13608640  0.96357060  0.14597400  1
  Se  Se1646  1  0.13608640  0.96357060  0.34597400  1
  Se  Se1647  1  0.13608640  0.96357060  0.54597400  1
  Se  Se1648  1  0.13608640  0.96357060  0.74597400  1
  Se  Se1649  1  0.13608640  0.96357060  0.94597400  1
  Se  Se1650  1  0.33608640  0.16357060  0.14597400  1
  Se  Se1651  1  0.33608640  0.16357060  0.34597400  1
  Se  Se1652  1  0.33608640  0.16357060  0.54597400  1
  Se  Se1653  1  0.33608640  0.16357060  0.74597400  1
  Se  Se1654  1  0.33608640  0.16357060  0.94597400  1
  Se  Se1655  1  0.33608640  0.36357060  0.14597400  1
  Se  Se1656  1  0.33608640  0.36357060  0.34597400  1
  Se  Se1657  1  0.33608640  0.36357060  0.54597400  1
  Se  Se1658  1  0.33608640  0.36357060  0.74597400  1
  Se  Se1659  1  0.33608640  0.36357060  0.94597400  1
  Se  Se1660  1  0.33608640  0.56357060  0.14597400  1
  Se  Se1661  1  0.33608640  0.56357060  0.34597400  1
  Se  Se1662  1  0.33608640  0.56357060  0.54597400  1
  Se  Se1663  1  0.33608640  0.56357060  0.74597400  1
  Se  Se1664  1  0.33608640  0.56357060  0.94597400  1
  Se  Se1665  1  0.33608640  0.76357060  0.14597400  1
  Se  Se1666  1  0.33608640  0.76357060  0.34597400  1
  Se  Se1667  1  0.33608640  0.76357060  0.54597400  1
  Se  Se1668  1  0.33608640  0.76357060  0.74597400  1
  Se  Se1669  1  0.33608640  0.76357060  0.94597400  1
  Se  Se1670  1  0.33608640  0.96357060  0.14597400  1
  Se  Se1671  1  0.33608640  0.96357060  0.34597400  1
  Se  Se1672  1  0.33608640  0.96357060  0.54597400  1
  Se  Se1673  1  0.33608640  0.96357060  0.74597400  1
  Se  Se1674  1  0.33608640  0.96357060  0.94597400  1
  Se  Se1675  1  0.53608640  0.16357060  0.14597400  1
  Se  Se1676  1  0.53608640  0.16357060  0.34597400  1
  Se  Se1677  1  0.53608640  0.16357060  0.54597400  1
  Se  Se1678  1  0.53608640  0.16357060  0.74597400  1
  Se  Se1679  1  0.53608640  0.16357060  0.94597400  1
  Se  Se1680  1  0.53608640  0.36357060  0.14597400  1
  Se  Se1681  1  0.53608640  0.36357060  0.34597400  1
  Se  Se1682  1  0.53608640  0.36357060  0.54597400  1
  Se  Se1683  1  0.53608640  0.36357060  0.74597400  1
  Se  Se1684  1  0.53608640  0.36357060  0.94597400  1
  Se  Se1685  1  0.53608640  0.56357060  0.14597400  1
  Se  Se1686  1  0.53608640  0.56357060  0.34597400  1
  Se  Se1687  1  0.53608640  0.56357060  0.54597400  1
  Se  Se1688  1  0.53608640  0.56357060  0.74597400  1
  Se  Se1689  1  0.53608640  0.56357060  0.94597400  1
  Se  Se1690  1  0.53608640  0.76357060  0.14597400  1
  Se  Se1691  1  0.53608640  0.76357060  0.34597400  1
  Se  Se1692  1  0.53608640  0.76357060  0.54597400  1
  Se  Se1693  1  0.53608640  0.76357060  0.74597400  1
  Se  Se1694  1  0.53608640  0.76357060  0.94597400  1
  Se  Se1695  1  0.53608640  0.96357060  0.14597400  1
  Se  Se1696  1  0.53608640  0.96357060  0.34597400  1
  Se  Se1697  1  0.53608640  0.96357060  0.54597400  1
  Se  Se1698  1  0.53608640  0.96357060  0.74597400  1
  Se  Se1699  1  0.53608640  0.96357060  0.94597400  1
  Se  Se1700  1  0.73608640  0.16357060  0.14597400  1
  Se  Se1701  1  0.73608640  0.16357060  0.34597400  1
  Se  Se1702  1  0.73608640  0.16357060  0.54597400  1
  Se  Se1703  1  0.73608640  0.16357060  0.74597400  1
  Se  Se1704  1  0.73608640  0.16357060  0.94597400  1
  Se  Se1705  1  0.73608640  0.36357060  0.14597400  1
  Se  Se1706  1  0.73608640  0.36357060  0.34597400  1
  Se  Se1707  1  0.73608640  0.36357060  0.54597400  1
  Se  Se1708  1  0.73608640  0.36357060  0.74597400  1
  Se  Se1709  1  0.73608640  0.36357060  0.94597400  1
  Se  Se1710  1  0.73608640  0.56357060  0.14597400  1
  Se  Se1711  1  0.73608640  0.56357060  0.34597400  1
  Se  Se1712  1  0.73608640  0.56357060  0.54597400  1
  Se  Se1713  1  0.73608640  0.56357060  0.74597400  1
  Se  Se1714  1  0.73608640  0.56357060  0.94597400  1
  Se  Se1715  1  0.73608640  0.76357060  0.14597400  1
  Se  Se1716  1  0.73608640  0.76357060  0.34597400  1
  Se  Se1717  1  0.73608640  0.76357060  0.54597400  1
  Se  Se1718  1  0.73608640  0.76357060  0.74597400  1
  Se  Se1719  1  0.73608640  0.76357060  0.94597400  1
  Se  Se1720  1  0.73608640  0.96357060  0.14597400  1
  Se  Se1721  1  0.73608640  0.96357060  0.34597400  1
  Se  Se1722  1  0.73608640  0.96357060  0.54597400  1
  Se  Se1723  1  0.73608640  0.96357060  0.74597400  1
  Se  Se1724  1  0.73608640  0.96357060  0.94597400  1
  Se  Se1725  1  0.93608640  0.16357060  0.14597400  1
  Se  Se1726  1  0.93608640  0.16357060  0.34597400  1
  Se  Se1727  1  0.93608640  0.16357060  0.54597400  1
  Se  Se1728  1  0.93608640  0.16357060  0.74597400  1
  Se  Se1729  1  0.93608640  0.16357060  0.94597400  1
  Se  Se1730  1  0.93608640  0.36357060  0.14597400  1
  Se  Se1731  1  0.93608640  0.36357060  0.34597400  1
  Se  Se1732  1  0.93608640  0.36357060  0.54597400  1
  Se  Se1733  1  0.93608640  0.36357060  0.74597400  1
  Se  Se1734  1  0.93608640  0.36357060  0.94597400  1
  Se  Se1735  1  0.93608640  0.56357060  0.14597400  1
  Se  Se1736  1  0.93608640  0.56357060  0.34597400  1
  Se  Se1737  1  0.93608640  0.56357060  0.54597400  1
  Se  Se1738  1  0.93608640  0.56357060  0.74597400  1
  Se  Se1739  1  0.93608640  0.56357060  0.94597400  1
  Se  Se1740  1  0.93608640  0.76357060  0.14597400  1
  Se  Se1741  1  0.93608640  0.76357060  0.34597400  1
  Se  Se1742  1  0.93608640  0.76357060  0.54597400  1
  Se  Se1743  1  0.93608640  0.76357060  0.74597400  1
  Se  Se1744  1  0.93608640  0.76357060  0.94597400  1
  Se  Se1745  1  0.93608640  0.96357060  0.14597400  1
  Se  Se1746  1  0.93608640  0.96357060  0.34597400  1
  Se  Se1747  1  0.93608640  0.96357060  0.54597400  1
  Se  Se1748  1  0.93608640  0.96357060  0.74597400  1
  Se  Se1749  1  0.93608640  0.96357060  0.94597400  1
  Se  Se1750  1  0.06391360  0.03642940  0.05402600  1
  Se  Se1751  1  0.06391360  0.03642940  0.25402600  1
  Se  Se1752  1  0.06391360  0.03642940  0.45402600  1
  Se  Se1753  1  0.06391360  0.03642940  0.65402600  1
  Se  Se1754  1  0.06391360  0.03642940  0.85402600  1
  Se  Se1755  1  0.06391360  0.23642940  0.05402600  1
  Se  Se1756  1  0.06391360  0.23642940  0.25402600  1
  Se  Se1757  1  0.06391360  0.23642940  0.45402600  1
  Se  Se1758  1  0.06391360  0.23642940  0.65402600  1
  Se  Se1759  1  0.06391360  0.23642940  0.85402600  1
  Se  Se1760  1  0.06391360  0.43642940  0.05402600  1
  Se  Se1761  1  0.06391360  0.43642940  0.25402600  1
  Se  Se1762  1  0.06391360  0.43642940  0.45402600  1
  Se  Se1763  1  0.06391360  0.43642940  0.65402600  1
  Se  Se1764  1  0.06391360  0.43642940  0.85402600  1
  Se  Se1765  1  0.06391360  0.63642940  0.05402600  1
  Se  Se1766  1  0.06391360  0.63642940  0.25402600  1
  Se  Se1767  1  0.06391360  0.63642940  0.45402600  1
  Se  Se1768  1  0.06391360  0.63642940  0.65402600  1
  Se  Se1769  1  0.06391360  0.63642940  0.85402600  1
  Se  Se1770  1  0.06391360  0.83642940  0.05402600  1
  Se  Se1771  1  0.06391360  0.83642940  0.25402600  1
  Se  Se1772  1  0.06391360  0.83642940  0.45402600  1
  Se  Se1773  1  0.06391360  0.83642940  0.65402600  1
  Se  Se1774  1  0.06391360  0.83642940  0.85402600  1
  Se  Se1775  1  0.26391360  0.03642940  0.05402600  1
  Se  Se1776  1  0.26391360  0.03642940  0.25402600  1
  Se  Se1777  1  0.26391360  0.03642940  0.45402600  1
  Se  Se1778  1  0.26391360  0.03642940  0.65402600  1
  Se  Se1779  1  0.26391360  0.03642940  0.85402600  1
  Se  Se1780  1  0.26391360  0.23642940  0.05402600  1
  Se  Se1781  1  0.26391360  0.23642940  0.25402600  1
  Se  Se1782  1  0.26391360  0.23642940  0.45402600  1
  Se  Se1783  1  0.26391360  0.23642940  0.65402600  1
  Se  Se1784  1  0.26391360  0.23642940  0.85402600  1
  Se  Se1785  1  0.26391360  0.43642940  0.05402600  1
  Se  Se1786  1  0.26391360  0.43642940  0.25402600  1
  Se  Se1787  1  0.26391360  0.43642940  0.45402600  1
  Se  Se1788  1  0.26391360  0.43642940  0.65402600  1
  Se  Se1789  1  0.26391360  0.43642940  0.85402600  1
  Se  Se1790  1  0.26391360  0.63642940  0.05402600  1
  Se  Se1791  1  0.26391360  0.63642940  0.25402600  1
  Se  Se1792  1  0.26391360  0.63642940  0.45402600  1
  Se  Se1793  1  0.26391360  0.63642940  0.65402600  1
  Se  Se1794  1  0.26391360  0.63642940  0.85402600  1
  Se  Se1795  1  0.26391360  0.83642940  0.05402600  1
  Se  Se1796  1  0.26391360  0.83642940  0.25402600  1
  Se  Se1797  1  0.26391360  0.83642940  0.45402600  1
  Se  Se1798  1  0.26391360  0.83642940  0.65402600  1
  Se  Se1799  1  0.26391360  0.83642940  0.85402600  1
  Se  Se1800  1  0.46391360  0.03642940  0.05402600  1
  Se  Se1801  1  0.46391360  0.03642940  0.25402600  1
  Se  Se1802  1  0.46391360  0.03642940  0.45402600  1
  Se  Se1803  1  0.46391360  0.03642940  0.65402600  1
  Se  Se1804  1  0.46391360  0.03642940  0.85402600  1
  Se  Se1805  1  0.46391360  0.23642940  0.05402600  1
  Se  Se1806  1  0.46391360  0.23642940  0.25402600  1
  Se  Se1807  1  0.46391360  0.23642940  0.45402600  1
  Se  Se1808  1  0.46391360  0.23642940  0.65402600  1
  Se  Se1809  1  0.46391360  0.23642940  0.85402600  1
  Se  Se1810  1  0.46391360  0.43642940  0.05402600  1
  Se  Se1811  1  0.46391360  0.43642940  0.25402600  1
  Se  Se1812  1  0.46391360  0.43642940  0.45402600  1
  Se  Se1813  1  0.46391360  0.43642940  0.65402600  1
  Se  Se1814  1  0.46391360  0.43642940  0.85402600  1
  Se  Se1815  1  0.46391360  0.63642940  0.05402600  1
  Se  Se1816  1  0.46391360  0.63642940  0.25402600  1
  Se  Se1817  1  0.46391360  0.63642940  0.45402600  1
  Se  Se1818  1  0.46391360  0.63642940  0.65402600  1
  Se  Se1819  1  0.46391360  0.63642940  0.85402600  1
  Se  Se1820  1  0.46391360  0.83642940  0.05402600  1
  Se  Se1821  1  0.46391360  0.83642940  0.25402600  1
  Se  Se1822  1  0.46391360  0.83642940  0.45402600  1
  Se  Se1823  1  0.46391360  0.83642940  0.65402600  1
  Se  Se1824  1  0.46391360  0.83642940  0.85402600  1
  Se  Se1825  1  0.66391360  0.03642940  0.05402600  1
  Se  Se1826  1  0.66391360  0.03642940  0.25402600  1
  Se  Se1827  1  0.66391360  0.03642940  0.45402600  1
  Se  Se1828  1  0.66391360  0.03642940  0.65402600  1
  Se  Se1829  1  0.66391360  0.03642940  0.85402600  1
  Se  Se1830  1  0.66391360  0.23642940  0.05402600  1
  Se  Se1831  1  0.66391360  0.23642940  0.25402600  1
  Se  Se1832  1  0.66391360  0.23642940  0.45402600  1
  Se  Se1833  1  0.66391360  0.23642940  0.65402600  1
  Se  Se1834  1  0.66391360  0.23642940  0.85402600  1
  Se  Se1835  1  0.66391360  0.43642940  0.05402600  1
  Se  Se1836  1  0.66391360  0.43642940  0.25402600  1
  Se  Se1837  1  0.66391360  0.43642940  0.45402600  1
  Se  Se1838  1  0.66391360  0.43642940  0.65402600  1
  Se  Se1839  1  0.66391360  0.43642940  0.85402600  1
  Se  Se1840  1  0.66391360  0.63642940  0.05402600  1
  Se  Se1841  1  0.66391360  0.63642940  0.25402600  1
  Se  Se1842  1  0.66391360  0.63642940  0.45402600  1
  Se  Se1843  1  0.66391360  0.63642940  0.65402600  1
  Se  Se1844  1  0.66391360  0.63642940  0.85402600  1
  Se  Se1845  1  0.66391360  0.83642940  0.05402600  1
  Se  Se1846  1  0.66391360  0.83642940  0.25402600  1
  Se  Se1847  1  0.66391360  0.83642940  0.45402600  1
  Se  Se1848  1  0.66391360  0.83642940  0.65402600  1
  Se  Se1849  1  0.66391360  0.83642940  0.85402600  1
  Se  Se1850  1  0.86391360  0.03642940  0.05402600  1
  Se  Se1851  1  0.86391360  0.03642940  0.25402600  1
  Se  Se1852  1  0.86391360  0.03642940  0.45402600  1
  Se  Se1853  1  0.86391360  0.03642940  0.65402600  1
  Se  Se1854  1  0.86391360  0.03642940  0.85402600  1
  Se  Se1855  1  0.86391360  0.23642940  0.05402600  1
  Se  Se1856  1  0.86391360  0.23642940  0.25402600  1
  Se  Se1857  1  0.86391360  0.23642940  0.45402600  1
  Se  Se1858  1  0.86391360  0.23642940  0.65402600  1
  Se  Se1859  1  0.86391360  0.23642940  0.85402600  1
  Se  Se1860  1  0.86391360  0.43642940  0.05402600  1
  Se  Se1861  1  0.86391360  0.43642940  0.25402600  1
  Se  Se1862  1  0.86391360  0.43642940  0.45402600  1
  Se  Se1863  1  0.86391360  0.43642940  0.65402600  1
  Se  Se1864  1  0.86391360  0.43642940  0.85402600  1
  Se  Se1865  1  0.86391360  0.63642940  0.05402600  1
  Se  Se1866  1  0.86391360  0.63642940  0.25402600  1
  Se  Se1867  1  0.86391360  0.63642940  0.45402600  1
  Se  Se1868  1  0.86391360  0.63642940  0.65402600  1
  Se  Se1869  1  0.86391360  0.63642940  0.85402600  1
  Se  Se1870  1  0.86391360  0.83642940  0.05402600  1
  Se  Se1871  1  0.86391360  0.83642940  0.25402600  1
  Se  Se1872  1  0.86391360  0.83642940  0.45402600  1
  Se  Se1873  1  0.86391360  0.83642940  0.65402600  1
  Se  Se1874  1  0.86391360  0.83642940  0.85402600  1
  Se  Se1875  1  0.06465780  0.05176380  0.15910340  1
  Se  Se1876  1  0.06465780  0.05176380  0.35910340  1
  Se  Se1877  1  0.06465780  0.05176380  0.55910340  1
  Se  Se1878  1  0.06465780  0.05176380  0.75910340  1
  Se  Se1879  1  0.06465780  0.05176380  0.95910340  1
  Se  Se1880  1  0.06465780  0.25176380  0.15910340  1
  Se  Se1881  1  0.06465780  0.25176380  0.35910340  1
  Se  Se1882  1  0.06465780  0.25176380  0.55910340  1
  Se  Se1883  1  0.06465780  0.25176380  0.75910340  1
  Se  Se1884  1  0.06465780  0.25176380  0.95910340  1
  Se  Se1885  1  0.06465780  0.45176380  0.15910340  1
  Se  Se1886  1  0.06465780  0.45176380  0.35910340  1
  Se  Se1887  1  0.06465780  0.45176380  0.55910340  1
  Se  Se1888  1  0.06465780  0.45176380  0.75910340  1
  Se  Se1889  1  0.06465780  0.45176380  0.95910340  1
  Se  Se1890  1  0.06465780  0.65176380  0.15910340  1
  Se  Se1891  1  0.06465780  0.65176380  0.35910340  1
  Se  Se1892  1  0.06465780  0.65176380  0.55910340  1
  Se  Se1893  1  0.06465780  0.65176380  0.75910340  1
  Se  Se1894  1  0.06465780  0.65176380  0.95910340  1
  Se  Se1895  1  0.06465780  0.85176380  0.15910340  1
  Se  Se1896  1  0.06465780  0.85176380  0.35910340  1
  Se  Se1897  1  0.06465780  0.85176380  0.55910340  1
  Se  Se1898  1  0.06465780  0.85176380  0.75910340  1
  Se  Se1899  1  0.06465780  0.85176380  0.95910340  1
  Se  Se1900  1  0.26465780  0.05176380  0.15910340  1
  Se  Se1901  1  0.26465780  0.05176380  0.35910340  1
  Se  Se1902  1  0.26465780  0.05176380  0.55910340  1
  Se  Se1903  1  0.26465780  0.05176380  0.75910340  1
  Se  Se1904  1  0.26465780  0.05176380  0.95910340  1
  Se  Se1905  1  0.26465780  0.25176380  0.15910340  1
  Se  Se1906  1  0.26465780  0.25176380  0.35910340  1
  Se  Se1907  1  0.26465780  0.25176380  0.55910340  1
  Se  Se1908  1  0.26465780  0.25176380  0.75910340  1
  Se  Se1909  1  0.26465780  0.25176380  0.95910340  1
  Se  Se1910  1  0.26465780  0.45176380  0.15910340  1
  Se  Se1911  1  0.26465780  0.45176380  0.35910340  1
  Se  Se1912  1  0.26465780  0.45176380  0.55910340  1
  Se  Se1913  1  0.26465780  0.45176380  0.75910340  1
  Se  Se1914  1  0.26465780  0.45176380  0.95910340  1
  Se  Se1915  1  0.26465780  0.65176380  0.15910340  1
  Se  Se1916  1  0.26465780  0.65176380  0.35910340  1
  Se  Se1917  1  0.26465780  0.65176380  0.55910340  1
  Se  Se1918  1  0.26465780  0.65176380  0.75910340  1
  Se  Se1919  1  0.26465780  0.65176380  0.95910340  1
  Se  Se1920  1  0.26465780  0.85176380  0.15910340  1
  Se  Se1921  1  0.26465780  0.85176380  0.35910340  1
  Se  Se1922  1  0.26465780  0.85176380  0.55910340  1
  Se  Se1923  1  0.26465780  0.85176380  0.75910340  1
  Se  Se1924  1  0.26465780  0.85176380  0.95910340  1
  Se  Se1925  1  0.46465780  0.05176380  0.15910340  1
  Se  Se1926  1  0.46465780  0.05176380  0.35910340  1
  Se  Se1927  1  0.46465780  0.05176380  0.55910340  1
  Se  Se1928  1  0.46465780  0.05176380  0.75910340  1
  Se  Se1929  1  0.46465780  0.05176380  0.95910340  1
  Se  Se1930  1  0.46465780  0.25176380  0.15910340  1
  Se  Se1931  1  0.46465780  0.25176380  0.35910340  1
  Se  Se1932  1  0.46465780  0.25176380  0.55910340  1
  Se  Se1933  1  0.46465780  0.25176380  0.75910340  1
  Se  Se1934  1  0.46465780  0.25176380  0.95910340  1
  Se  Se1935  1  0.46465780  0.45176380  0.15910340  1
  Se  Se1936  1  0.46465780  0.45176380  0.35910340  1
  Se  Se1937  1  0.46465780  0.45176380  0.55910340  1
  Se  Se1938  1  0.46465780  0.45176380  0.75910340  1
  Se  Se1939  1  0.46465780  0.45176380  0.95910340  1
  Se  Se1940  1  0.46465780  0.65176380  0.15910340  1
  Se  Se1941  1  0.46465780  0.65176380  0.35910340  1
  Se  Se1942  1  0.46465780  0.65176380  0.55910340  1
  Se  Se1943  1  0.46465780  0.65176380  0.75910340  1
  Se  Se1944  1  0.46465780  0.65176380  0.95910340  1
  Se  Se1945  1  0.46465780  0.85176380  0.15910340  1
  Se  Se1946  1  0.46465780  0.85176380  0.35910340  1
  Se  Se1947  1  0.46465780  0.85176380  0.55910340  1
  Se  Se1948  1  0.46465780  0.85176380  0.75910340  1
  Se  Se1949  1  0.46465780  0.85176380  0.95910340  1
  Se  Se1950  1  0.66465780  0.05176380  0.15910340  1
  Se  Se1951  1  0.66465780  0.05176380  0.35910340  1
  Se  Se1952  1  0.66465780  0.05176380  0.55910340  1
  Se  Se1953  1  0.66465780  0.05176380  0.75910340  1
  Se  Se1954  1  0.66465780  0.05176380  0.95910340  1
  Se  Se1955  1  0.66465780  0.25176380  0.15910340  1
  Se  Se1956  1  0.66465780  0.25176380  0.35910340  1
  Se  Se1957  1  0.66465780  0.25176380  0.55910340  1
  Se  Se1958  1  0.66465780  0.25176380  0.75910340  1
  Se  Se1959  1  0.66465780  0.25176380  0.95910340  1
  Se  Se1960  1  0.66465780  0.45176380  0.15910340  1
  Se  Se1961  1  0.66465780  0.45176380  0.35910340  1
  Se  Se1962  1  0.66465780  0.45176380  0.55910340  1
  Se  Se1963  1  0.66465780  0.45176380  0.75910340  1
  Se  Se1964  1  0.66465780  0.45176380  0.95910340  1
  Se  Se1965  1  0.66465780  0.65176380  0.15910340  1
  Se  Se1966  1  0.66465780  0.65176380  0.35910340  1
  Se  Se1967  1  0.66465780  0.65176380  0.55910340  1
  Se  Se1968  1  0.66465780  0.65176380  0.75910340  1
  Se  Se1969  1  0.66465780  0.65176380  0.95910340  1
  Se  Se1970  1  0.66465780  0.85176380  0.15910340  1
  Se  Se1971  1  0.66465780  0.85176380  0.35910340  1
  Se  Se1972  1  0.66465780  0.85176380  0.55910340  1
  Se  Se1973  1  0.66465780  0.85176380  0.75910340  1
  Se  Se1974  1  0.66465780  0.85176380  0.95910340  1
  Se  Se1975  1  0.86465780  0.05176380  0.15910340  1
  Se  Se1976  1  0.86465780  0.05176380  0.35910340  1
  Se  Se1977  1  0.86465780  0.05176380  0.55910340  1
  Se  Se1978  1  0.86465780  0.05176380  0.75910340  1
  Se  Se1979  1  0.86465780  0.05176380  0.95910340  1
  Se  Se1980  1  0.86465780  0.25176380  0.15910340  1
  Se  Se1981  1  0.86465780  0.25176380  0.35910340  1
  Se  Se1982  1  0.86465780  0.25176380  0.55910340  1
  Se  Se1983  1  0.86465780  0.25176380  0.75910340  1
  Se  Se1984  1  0.86465780  0.25176380  0.95910340  1
  Se  Se1985  1  0.86465780  0.45176380  0.15910340  1
  Se  Se1986  1  0.86465780  0.45176380  0.35910340  1
  Se  Se1987  1  0.86465780  0.45176380  0.55910340  1
  Se  Se1988  1  0.86465780  0.45176380  0.75910340  1
  Se  Se1989  1  0.86465780  0.45176380  0.95910340  1
  Se  Se1990  1  0.86465780  0.65176380  0.15910340  1
  Se  Se1991  1  0.86465780  0.65176380  0.35910340  1
  Se  Se1992  1  0.86465780  0.65176380  0.55910340  1
  Se  Se1993  1  0.86465780  0.65176380  0.75910340  1
  Se  Se1994  1  0.86465780  0.65176380  0.95910340  1
  Se  Se1995  1  0.86465780  0.85176380  0.15910340  1
  Se  Se1996  1  0.86465780  0.85176380  0.35910340  1
  Se  Se1997  1  0.86465780  0.85176380  0.55910340  1
  Se  Se1998  1  0.86465780  0.85176380  0.75910340  1
  Se  Se1999  1  0.86465780  0.85176380  0.95910340  1
  Se  Se2000  1  0.05461120  0.15084180  0.18656900  1
  Se  Se2001  1  0.05461120  0.15084180  0.38656900  1
  Se  Se2002  1  0.05461120  0.15084180  0.58656900  1
  Se  Se2003  1  0.05461120  0.15084180  0.78656900  1
  Se  Se2004  1  0.05461120  0.15084180  0.98656900  1
  Se  Se2005  1  0.05461120  0.35084180  0.18656900  1
  Se  Se2006  1  0.05461120  0.35084180  0.38656900  1
  Se  Se2007  1  0.05461120  0.35084180  0.58656900  1
  Se  Se2008  1  0.05461120  0.35084180  0.78656900  1
  Se  Se2009  1  0.05461120  0.35084180  0.98656900  1
  Se  Se2010  1  0.05461120  0.55084180  0.18656900  1
  Se  Se2011  1  0.05461120  0.55084180  0.38656900  1
  Se  Se2012  1  0.05461120  0.55084180  0.58656900  1
  Se  Se2013  1  0.05461120  0.55084180  0.78656900  1
  Se  Se2014  1  0.05461120  0.55084180  0.98656900  1
  Se  Se2015  1  0.05461120  0.75084180  0.18656900  1
  Se  Se2016  1  0.05461120  0.75084180  0.38656900  1
  Se  Se2017  1  0.05461120  0.75084180  0.58656900  1
  Se  Se2018  1  0.05461120  0.75084180  0.78656900  1
  Se  Se2019  1  0.05461120  0.75084180  0.98656900  1
  Se  Se2020  1  0.05461120  0.95084180  0.18656900  1
  Se  Se2021  1  0.05461120  0.95084180  0.38656900  1
  Se  Se2022  1  0.05461120  0.95084180  0.58656900  1
  Se  Se2023  1  0.05461120  0.95084180  0.78656900  1
  Se  Se2024  1  0.05461120  0.95084180  0.98656900  1
  Se  Se2025  1  0.25461120  0.15084180  0.18656900  1
  Se  Se2026  1  0.25461120  0.15084180  0.38656900  1
  Se  Se2027  1  0.25461120  0.15084180  0.58656900  1
  Se  Se2028  1  0.25461120  0.15084180  0.78656900  1
  Se  Se2029  1  0.25461120  0.15084180  0.98656900  1
  Se  Se2030  1  0.25461120  0.35084180  0.18656900  1
  Se  Se2031  1  0.25461120  0.35084180  0.38656900  1
  Se  Se2032  1  0.25461120  0.35084180  0.58656900  1
  Se  Se2033  1  0.25461120  0.35084180  0.78656900  1
  Se  Se2034  1  0.25461120  0.35084180  0.98656900  1
  Se  Se2035  1  0.25461120  0.55084180  0.18656900  1
  Se  Se2036  1  0.25461120  0.55084180  0.38656900  1
  Se  Se2037  1  0.25461120  0.55084180  0.58656900  1
  Se  Se2038  1  0.25461120  0.55084180  0.78656900  1
  Se  Se2039  1  0.25461120  0.55084180  0.98656900  1
  Se  Se2040  1  0.25461120  0.75084180  0.18656900  1
  Se  Se2041  1  0.25461120  0.75084180  0.38656900  1
  Se  Se2042  1  0.25461120  0.75084180  0.58656900  1
  Se  Se2043  1  0.25461120  0.75084180  0.78656900  1
  Se  Se2044  1  0.25461120  0.75084180  0.98656900  1
  Se  Se2045  1  0.25461120  0.95084180  0.18656900  1
  Se  Se2046  1  0.25461120  0.95084180  0.38656900  1
  Se  Se2047  1  0.25461120  0.95084180  0.58656900  1
  Se  Se2048  1  0.25461120  0.95084180  0.78656900  1
  Se  Se2049  1  0.25461120  0.95084180  0.98656900  1
  Se  Se2050  1  0.45461120  0.15084180  0.18656900  1
  Se  Se2051  1  0.45461120  0.15084180  0.38656900  1
  Se  Se2052  1  0.45461120  0.15084180  0.58656900  1
  Se  Se2053  1  0.45461120  0.15084180  0.78656900  1
  Se  Se2054  1  0.45461120  0.15084180  0.98656900  1
  Se  Se2055  1  0.45461120  0.35084180  0.18656900  1
  Se  Se2056  1  0.45461120  0.35084180  0.38656900  1
  Se  Se2057  1  0.45461120  0.35084180  0.58656900  1
  Se  Se2058  1  0.45461120  0.35084180  0.78656900  1
  Se  Se2059  1  0.45461120  0.35084180  0.98656900  1
  Se  Se2060  1  0.45461120  0.55084180  0.18656900  1
  Se  Se2061  1  0.45461120  0.55084180  0.38656900  1
  Se  Se2062  1  0.45461120  0.55084180  0.58656900  1
  Se  Se2063  1  0.45461120  0.55084180  0.78656900  1
  Se  Se2064  1  0.45461120  0.55084180  0.98656900  1
  Se  Se2065  1  0.45461120  0.75084180  0.18656900  1
  Se  Se2066  1  0.45461120  0.75084180  0.38656900  1
  Se  Se2067  1  0.45461120  0.75084180  0.58656900  1
  Se  Se2068  1  0.45461120  0.75084180  0.78656900  1
  Se  Se2069  1  0.45461120  0.75084180  0.98656900  1
  Se  Se2070  1  0.45461120  0.95084180  0.18656900  1
  Se  Se2071  1  0.45461120  0.95084180  0.38656900  1
  Se  Se2072  1  0.45461120  0.95084180  0.58656900  1
  Se  Se2073  1  0.45461120  0.95084180  0.78656900  1
  Se  Se2074  1  0.45461120  0.95084180  0.98656900  1
  Se  Se2075  1  0.65461120  0.15084180  0.18656900  1
  Se  Se2076  1  0.65461120  0.15084180  0.38656900  1
  Se  Se2077  1  0.65461120  0.15084180  0.58656900  1
  Se  Se2078  1  0.65461120  0.15084180  0.78656900  1
  Se  Se2079  1  0.65461120  0.15084180  0.98656900  1
  Se  Se2080  1  0.65461120  0.35084180  0.18656900  1
  Se  Se2081  1  0.65461120  0.35084180  0.38656900  1
  Se  Se2082  1  0.65461120  0.35084180  0.58656900  1
  Se  Se2083  1  0.65461120  0.35084180  0.78656900  1
  Se  Se2084  1  0.65461120  0.35084180  0.98656900  1
  Se  Se2085  1  0.65461120  0.55084180  0.18656900  1
  Se  Se2086  1  0.65461120  0.55084180  0.38656900  1
  Se  Se2087  1  0.65461120  0.55084180  0.58656900  1
  Se  Se2088  1  0.65461120  0.55084180  0.78656900  1
  Se  Se2089  1  0.65461120  0.55084180  0.98656900  1
  Se  Se2090  1  0.65461120  0.75084180  0.18656900  1
  Se  Se2091  1  0.65461120  0.75084180  0.38656900  1
  Se  Se2092  1  0.65461120  0.75084180  0.58656900  1
  Se  Se2093  1  0.65461120  0.75084180  0.78656900  1
  Se  Se2094  1  0.65461120  0.75084180  0.98656900  1
  Se  Se2095  1  0.65461120  0.95084180  0.18656900  1
  Se  Se2096  1  0.65461120  0.95084180  0.38656900  1
  Se  Se2097  1  0.65461120  0.95084180  0.58656900  1
  Se  Se2098  1  0.65461120  0.95084180  0.78656900  1
  Se  Se2099  1  0.65461120  0.95084180  0.98656900  1
  Se  Se2100  1  0.85461120  0.15084180  0.18656900  1
  Se  Se2101  1  0.85461120  0.15084180  0.38656900  1
  Se  Se2102  1  0.85461120  0.15084180  0.58656900  1
  Se  Se2103  1  0.85461120  0.15084180  0.78656900  1
  Se  Se2104  1  0.85461120  0.15084180  0.98656900  1
  Se  Se2105  1  0.85461120  0.35084180  0.18656900  1
  Se  Se2106  1  0.85461120  0.35084180  0.38656900  1
  Se  Se2107  1  0.85461120  0.35084180  0.58656900  1
  Se  Se2108  1  0.85461120  0.35084180  0.78656900  1
  Se  Se2109  1  0.85461120  0.35084180  0.98656900  1
  Se  Se2110  1  0.85461120  0.55084180  0.18656900  1
  Se  Se2111  1  0.85461120  0.55084180  0.38656900  1
  Se  Se2112  1  0.85461120  0.55084180  0.58656900  1
  Se  Se2113  1  0.85461120  0.55084180  0.78656900  1
  Se  Se2114  1  0.85461120  0.55084180  0.98656900  1
  Se  Se2115  1  0.85461120  0.75084180  0.18656900  1
  Se  Se2116  1  0.85461120  0.75084180  0.38656900  1
  Se  Se2117  1  0.85461120  0.75084180  0.58656900  1
  Se  Se2118  1  0.85461120  0.75084180  0.78656900  1
  Se  Se2119  1  0.85461120  0.75084180  0.98656900  1
  Se  Se2120  1  0.85461120  0.95084180  0.18656900  1
  Se  Se2121  1  0.85461120  0.95084180  0.38656900  1
  Se  Se2122  1  0.85461120  0.95084180  0.58656900  1
  Se  Se2123  1  0.85461120  0.95084180  0.78656900  1
  Se  Se2124  1  0.85461120  0.95084180  0.98656900  1
  Se  Se2125  1  0.05756460  0.15755260  0.10417100  1
  Se  Se2126  1  0.05756460  0.15755260  0.30417100  1
  Se  Se2127  1  0.05756460  0.15755260  0.50417100  1
  Se  Se2128  1  0.05756460  0.15755260  0.70417100  1
  Se  Se2129  1  0.05756460  0.15755260  0.90417100  1
  Se  Se2130  1  0.05756460  0.35755260  0.10417100  1
  Se  Se2131  1  0.05756460  0.35755260  0.30417100  1
  Se  Se2132  1  0.05756460  0.35755260  0.50417100  1
  Se  Se2133  1  0.05756460  0.35755260  0.70417100  1
  Se  Se2134  1  0.05756460  0.35755260  0.90417100  1
  Se  Se2135  1  0.05756460  0.55755260  0.10417100  1
  Se  Se2136  1  0.05756460  0.55755260  0.30417100  1
  Se  Se2137  1  0.05756460  0.55755260  0.50417100  1
  Se  Se2138  1  0.05756460  0.55755260  0.70417100  1
  Se  Se2139  1  0.05756460  0.55755260  0.90417100  1
  Se  Se2140  1  0.05756460  0.75755260  0.10417100  1
  Se  Se2141  1  0.05756460  0.75755260  0.30417100  1
  Se  Se2142  1  0.05756460  0.75755260  0.50417100  1
  Se  Se2143  1  0.05756460  0.75755260  0.70417100  1
  Se  Se2144  1  0.05756460  0.75755260  0.90417100  1
  Se  Se2145  1  0.05756460  0.95755260  0.10417100  1
  Se  Se2146  1  0.05756460  0.95755260  0.30417100  1
  Se  Se2147  1  0.05756460  0.95755260  0.50417100  1
  Se  Se2148  1  0.05756460  0.95755260  0.70417100  1
  Se  Se2149  1  0.05756460  0.95755260  0.90417100  1
  Se  Se2150  1  0.25756460  0.15755260  0.10417100  1
  Se  Se2151  1  0.25756460  0.15755260  0.30417100  1
  Se  Se2152  1  0.25756460  0.15755260  0.50417100  1
  Se  Se2153  1  0.25756460  0.15755260  0.70417100  1
  Se  Se2154  1  0.25756460  0.15755260  0.90417100  1
  Se  Se2155  1  0.25756460  0.35755260  0.10417100  1
  Se  Se2156  1  0.25756460  0.35755260  0.30417100  1
  Se  Se2157  1  0.25756460  0.35755260  0.50417100  1
  Se  Se2158  1  0.25756460  0.35755260  0.70417100  1
  Se  Se2159  1  0.25756460  0.35755260  0.90417100  1
  Se  Se2160  1  0.25756460  0.55755260  0.10417100  1
  Se  Se2161  1  0.25756460  0.55755260  0.30417100  1
  Se  Se2162  1  0.25756460  0.55755260  0.50417100  1
  Se  Se2163  1  0.25756460  0.55755260  0.70417100  1
  Se  Se2164  1  0.25756460  0.55755260  0.90417100  1
  Se  Se2165  1  0.25756460  0.75755260  0.10417100  1
  Se  Se2166  1  0.25756460  0.75755260  0.30417100  1
  Se  Se2167  1  0.25756460  0.75755260  0.50417100  1
  Se  Se2168  1  0.25756460  0.75755260  0.70417100  1
  Se  Se2169  1  0.25756460  0.75755260  0.90417100  1
  Se  Se2170  1  0.25756460  0.95755260  0.10417100  1
  Se  Se2171  1  0.25756460  0.95755260  0.30417100  1
  Se  Se2172  1  0.25756460  0.95755260  0.50417100  1
  Se  Se2173  1  0.25756460  0.95755260  0.70417100  1
  Se  Se2174  1  0.25756460  0.95755260  0.90417100  1
  Se  Se2175  1  0.45756460  0.15755260  0.10417100  1
  Se  Se2176  1  0.45756460  0.15755260  0.30417100  1
  Se  Se2177  1  0.45756460  0.15755260  0.50417100  1
  Se  Se2178  1  0.45756460  0.15755260  0.70417100  1
  Se  Se2179  1  0.45756460  0.15755260  0.90417100  1
  Se  Se2180  1  0.45756460  0.35755260  0.10417100  1
  Se  Se2181  1  0.45756460  0.35755260  0.30417100  1
  Se  Se2182  1  0.45756460  0.35755260  0.50417100  1
  Se  Se2183  1  0.45756460  0.35755260  0.70417100  1
  Se  Se2184  1  0.45756460  0.35755260  0.90417100  1
  Se  Se2185  1  0.45756460  0.55755260  0.10417100  1
  Se  Se2186  1  0.45756460  0.55755260  0.30417100  1
  Se  Se2187  1  0.45756460  0.55755260  0.50417100  1
  Se  Se2188  1  0.45756460  0.55755260  0.70417100  1
  Se  Se2189  1  0.45756460  0.55755260  0.90417100  1
  Se  Se2190  1  0.45756460  0.75755260  0.10417100  1
  Se  Se2191  1  0.45756460  0.75755260  0.30417100  1
  Se  Se2192  1  0.45756460  0.75755260  0.50417100  1
  Se  Se2193  1  0.45756460  0.75755260  0.70417100  1
  Se  Se2194  1  0.45756460  0.75755260  0.90417100  1
  Se  Se2195  1  0.45756460  0.95755260  0.10417100  1
  Se  Se2196  1  0.45756460  0.95755260  0.30417100  1
  Se  Se2197  1  0.45756460  0.95755260  0.50417100  1
  Se  Se2198  1  0.45756460  0.95755260  0.70417100  1
  Se  Se2199  1  0.45756460  0.95755260  0.90417100  1
  Se  Se2200  1  0.65756460  0.15755260  0.10417100  1
  Se  Se2201  1  0.65756460  0.15755260  0.30417100  1
  Se  Se2202  1  0.65756460  0.15755260  0.50417100  1
  Se  Se2203  1  0.65756460  0.15755260  0.70417100  1
  Se  Se2204  1  0.65756460  0.15755260  0.90417100  1
  Se  Se2205  1  0.65756460  0.35755260  0.10417100  1
  Se  Se2206  1  0.65756460  0.35755260  0.30417100  1
  Se  Se2207  1  0.65756460  0.35755260  0.50417100  1
  Se  Se2208  1  0.65756460  0.35755260  0.70417100  1
  Se  Se2209  1  0.65756460  0.35755260  0.90417100  1
  Se  Se2210  1  0.65756460  0.55755260  0.10417100  1
  Se  Se2211  1  0.65756460  0.55755260  0.30417100  1
  Se  Se2212  1  0.65756460  0.55755260  0.50417100  1
  Se  Se2213  1  0.65756460  0.55755260  0.70417100  1
  Se  Se2214  1  0.65756460  0.55755260  0.90417100  1
  Se  Se2215  1  0.65756460  0.75755260  0.10417100  1
  Se  Se2216  1  0.65756460  0.75755260  0.30417100  1
  Se  Se2217  1  0.65756460  0.75755260  0.50417100  1
  Se  Se2218  1  0.65756460  0.75755260  0.70417100  1
  Se  Se2219  1  0.65756460  0.75755260  0.90417100  1
  Se  Se2220  1  0.65756460  0.95755260  0.10417100  1
  Se  Se2221  1  0.65756460  0.95755260  0.30417100  1
  Se  Se2222  1  0.65756460  0.95755260  0.50417100  1
  Se  Se2223  1  0.65756460  0.95755260  0.70417100  1
  Se  Se2224  1  0.65756460  0.95755260  0.90417100  1
  Se  Se2225  1  0.85756460  0.15755260  0.10417100  1
  Se  Se2226  1  0.85756460  0.15755260  0.30417100  1
  Se  Se2227  1  0.85756460  0.15755260  0.50417100  1
  Se  Se2228  1  0.85756460  0.15755260  0.70417100  1
  Se  Se2229  1  0.85756460  0.15755260  0.90417100  1
  Se  Se2230  1  0.85756460  0.35755260  0.10417100  1
  Se  Se2231  1  0.85756460  0.35755260  0.30417100  1
  Se  Se2232  1  0.85756460  0.35755260  0.50417100  1
  Se  Se2233  1  0.85756460  0.35755260  0.70417100  1
  Se  Se2234  1  0.85756460  0.35755260  0.90417100  1
  Se  Se2235  1  0.85756460  0.55755260  0.10417100  1
  Se  Se2236  1  0.85756460  0.55755260  0.30417100  1
  Se  Se2237  1  0.85756460  0.55755260  0.50417100  1
  Se  Se2238  1  0.85756460  0.55755260  0.70417100  1
  Se  Se2239  1  0.85756460  0.55755260  0.90417100  1
  Se  Se2240  1  0.85756460  0.75755260  0.10417100  1
  Se  Se2241  1  0.85756460  0.75755260  0.30417100  1
  Se  Se2242  1  0.85756460  0.75755260  0.50417100  1
  Se  Se2243  1  0.85756460  0.75755260  0.70417100  1
  Se  Se2244  1  0.85756460  0.75755260  0.90417100  1
  Se  Se2245  1  0.85756460  0.95755260  0.10417100  1
  Se  Se2246  1  0.85756460  0.95755260  0.30417100  1
  Se  Se2247  1  0.85756460  0.95755260  0.50417100  1
  Se  Se2248  1  0.85756460  0.95755260  0.70417100  1
  Se  Se2249  1  0.85756460  0.95755260  0.90417100  1
  O  O2250  1  0.18047860  0.03212480  0.08549660  1
  O  O2251  1  0.18047860  0.03212480  0.28549660  1
  O  O2252  1  0.18047860  0.03212480  0.48549660  1
  O  O2253  1  0.18047860  0.03212480  0.68549660  1
  O  O2254  1  0.18047860  0.03212480  0.88549660  1
  O  O2255  1  0.18047860  0.23212480  0.08549660  1
  O  O2256  1  0.18047860  0.23212480  0.28549660  1
  O  O2257  1  0.18047860  0.23212480  0.48549660  1
  O  O2258  1  0.18047860  0.23212480  0.68549660  1
  O  O2259  1  0.18047860  0.23212480  0.88549660  1
  O  O2260  1  0.18047860  0.43212480  0.08549660  1
  O  O2261  1  0.18047860  0.43212480  0.28549660  1
  O  O2262  1  0.18047860  0.43212480  0.48549660  1
  O  O2263  1  0.18047860  0.43212480  0.68549660  1
  O  O2264  1  0.18047860  0.43212480  0.88549660  1
  O  O2265  1  0.18047860  0.63212480  0.08549660  1
  O  O2266  1  0.18047860  0.63212480  0.28549660  1
  O  O2267  1  0.18047860  0.63212480  0.48549660  1
  O  O2268  1  0.18047860  0.63212480  0.68549660  1
  O  O2269  1  0.18047860  0.63212480  0.88549660  1
  O  O2270  1  0.18047860  0.83212480  0.08549660  1
  O  O2271  1  0.18047860  0.83212480  0.28549660  1
  O  O2272  1  0.18047860  0.83212480  0.48549660  1
  O  O2273  1  0.18047860  0.83212480  0.68549660  1
  O  O2274  1  0.18047860  0.83212480  0.88549660  1
  O  O2275  1  0.38047860  0.03212480  0.08549660  1
  O  O2276  1  0.38047860  0.03212480  0.28549660  1
  O  O2277  1  0.38047860  0.03212480  0.48549660  1
  O  O2278  1  0.38047860  0.03212480  0.68549660  1
  O  O2279  1  0.38047860  0.03212480  0.88549660  1
  O  O2280  1  0.38047860  0.23212480  0.08549660  1
  O  O2281  1  0.38047860  0.23212480  0.28549660  1
  O  O2282  1  0.38047860  0.23212480  0.48549660  1
  O  O2283  1  0.38047860  0.23212480  0.68549660  1
  O  O2284  1  0.38047860  0.23212480  0.88549660  1
  O  O2285  1  0.38047860  0.43212480  0.08549660  1
  O  O2286  1  0.38047860  0.43212480  0.28549660  1
  O  O2287  1  0.38047860  0.43212480  0.48549660  1
  O  O2288  1  0.38047860  0.43212480  0.68549660  1
  O  O2289  1  0.38047860  0.43212480  0.88549660  1
  O  O2290  1  0.38047860  0.63212480  0.08549660  1
  O  O2291  1  0.38047860  0.63212480  0.28549660  1
  O  O2292  1  0.38047860  0.63212480  0.48549660  1
  O  O2293  1  0.38047860  0.63212480  0.68549660  1
  O  O2294  1  0.38047860  0.63212480  0.88549660  1
  O  O2295  1  0.38047860  0.83212480  0.08549660  1
  O  O2296  1  0.38047860  0.83212480  0.28549660  1
  O  O2297  1  0.38047860  0.83212480  0.48549660  1
  O  O2298  1  0.38047860  0.83212480  0.68549660  1
  O  O2299  1  0.38047860  0.83212480  0.88549660  1
  O  O2300  1  0.58047860  0.03212480  0.08549660  1
  O  O2301  1  0.58047860  0.03212480  0.28549660  1
  O  O2302  1  0.58047860  0.03212480  0.48549660  1
  O  O2303  1  0.58047860  0.03212480  0.68549660  1
  O  O2304  1  0.58047860  0.03212480  0.88549660  1
  O  O2305  1  0.58047860  0.23212480  0.08549660  1
  O  O2306  1  0.58047860  0.23212480  0.28549660  1
  O  O2307  1  0.58047860  0.23212480  0.48549660  1
  O  O2308  1  0.58047860  0.23212480  0.68549660  1
  O  O2309  1  0.58047860  0.23212480  0.88549660  1
  O  O2310  1  0.58047860  0.43212480  0.08549660  1
  O  O2311  1  0.58047860  0.43212480  0.28549660  1
  O  O2312  1  0.58047860  0.43212480  0.48549660  1
  O  O2313  1  0.58047860  0.43212480  0.68549660  1
  O  O2314  1  0.58047860  0.43212480  0.88549660  1
  O  O2315  1  0.58047860  0.63212480  0.08549660  1
  O  O2316  1  0.58047860  0.63212480  0.28549660  1
  O  O2317  1  0.58047860  0.63212480  0.48549660  1
  O  O2318  1  0.58047860  0.63212480  0.68549660  1
  O  O2319  1  0.58047860  0.63212480  0.88549660  1
  O  O2320  1  0.58047860  0.83212480  0.08549660  1
  O  O2321  1  0.58047860  0.83212480  0.28549660  1
  O  O2322  1  0.58047860  0.83212480  0.48549660  1
  O  O2323  1  0.58047860  0.83212480  0.68549660  1
  O  O2324  1  0.58047860  0.83212480  0.88549660  1
  O  O2325  1  0.78047860  0.03212480  0.08549660  1
  O  O2326  1  0.78047860  0.03212480  0.28549660  1
  O  O2327  1  0.78047860  0.03212480  0.48549660  1
  O  O2328  1  0.78047860  0.03212480  0.68549660  1
  O  O2329  1  0.78047860  0.03212480  0.88549660  1
  O  O2330  1  0.78047860  0.23212480  0.08549660  1
  O  O2331  1  0.78047860  0.23212480  0.28549660  1
  O  O2332  1  0.78047860  0.23212480  0.48549660  1
  O  O2333  1  0.78047860  0.23212480  0.68549660  1
  O  O2334  1  0.78047860  0.23212480  0.88549660  1
  O  O2335  1  0.78047860  0.43212480  0.08549660  1
  O  O2336  1  0.78047860  0.43212480  0.28549660  1
  O  O2337  1  0.78047860  0.43212480  0.48549660  1
  O  O2338  1  0.78047860  0.43212480  0.68549660  1
  O  O2339  1  0.78047860  0.43212480  0.88549660  1
  O  O2340  1  0.78047860  0.63212480  0.08549660  1
  O  O2341  1  0.78047860  0.63212480  0.28549660  1
  O  O2342  1  0.78047860  0.63212480  0.48549660  1
  O  O2343  1  0.78047860  0.63212480  0.68549660  1
  O  O2344  1  0.78047860  0.63212480  0.88549660  1
  O  O2345  1  0.78047860  0.83212480  0.08549660  1
  O  O2346  1  0.78047860  0.83212480  0.28549660  1
  O  O2347  1  0.78047860  0.83212480  0.48549660  1
  O  O2348  1  0.78047860  0.83212480  0.68549660  1
  O  O2349  1  0.78047860  0.83212480  0.88549660  1
  O  O2350  1  0.98047860  0.03212480  0.08549660  1
  O  O2351  1  0.98047860  0.03212480  0.28549660  1
  O  O2352  1  0.98047860  0.03212480  0.48549660  1
  O  O2353  1  0.98047860  0.03212480  0.68549660  1
  O  O2354  1  0.98047860  0.03212480  0.88549660  1
  O  O2355  1  0.98047860  0.23212480  0.08549660  1
  O  O2356  1  0.98047860  0.23212480  0.28549660  1
  O  O2357  1  0.98047860  0.23212480  0.48549660  1
  O  O2358  1  0.98047860  0.23212480  0.68549660  1
  O  O2359  1  0.98047860  0.23212480  0.88549660  1
  O  O2360  1  0.98047860  0.43212480  0.08549660  1
  O  O2361  1  0.98047860  0.43212480  0.28549660  1
  O  O2362  1  0.98047860  0.43212480  0.48549660  1
  O  O2363  1  0.98047860  0.43212480  0.68549660  1
  O  O2364  1  0.98047860  0.43212480  0.88549660  1
  O  O2365  1  0.98047860  0.63212480  0.08549660  1
  O  O2366  1  0.98047860  0.63212480  0.28549660  1
  O  O2367  1  0.98047860  0.63212480  0.48549660  1
  O  O2368  1  0.98047860  0.63212480  0.68549660  1
  O  O2369  1  0.98047860  0.63212480  0.88549660  1
  O  O2370  1  0.98047860  0.83212480  0.08549660  1
  O  O2371  1  0.98047860  0.83212480  0.28549660  1
  O  O2372  1  0.98047860  0.83212480  0.48549660  1
  O  O2373  1  0.98047860  0.83212480  0.68549660  1
  O  O2374  1  0.98047860  0.83212480  0.88549660  1
  O  O2375  1  0.19164340  0.08194240  0.03035980  1
  O  O2376  1  0.19164340  0.08194240  0.23035980  1
  O  O2377  1  0.19164340  0.08194240  0.43035980  1
  O  O2378  1  0.19164340  0.08194240  0.63035980  1
  O  O2379  1  0.19164340  0.08194240  0.83035980  1
  O  O2380  1  0.19164340  0.28194240  0.03035980  1
  O  O2381  1  0.19164340  0.28194240  0.23035980  1
  O  O2382  1  0.19164340  0.28194240  0.43035980  1
  O  O2383  1  0.19164340  0.28194240  0.63035980  1
  O  O2384  1  0.19164340  0.28194240  0.83035980  1
  O  O2385  1  0.19164340  0.48194240  0.03035980  1
  O  O2386  1  0.19164340  0.48194240  0.23035980  1
  O  O2387  1  0.19164340  0.48194240  0.43035980  1
  O  O2388  1  0.19164340  0.48194240  0.63035980  1
  O  O2389  1  0.19164340  0.48194240  0.83035980  1
  O  O2390  1  0.19164340  0.68194240  0.03035980  1
  O  O2391  1  0.19164340  0.68194240  0.23035980  1
  O  O2392  1  0.19164340  0.68194240  0.43035980  1
  O  O2393  1  0.19164340  0.68194240  0.63035980  1
  O  O2394  1  0.19164340  0.68194240  0.83035980  1
  O  O2395  1  0.19164340  0.88194240  0.03035980  1
  O  O2396  1  0.19164340  0.88194240  0.23035980  1
  O  O2397  1  0.19164340  0.88194240  0.43035980  1
  O  O2398  1  0.19164340  0.88194240  0.63035980  1
  O  O2399  1  0.19164340  0.88194240  0.83035980  1
  O  O2400  1  0.39164340  0.08194240  0.03035980  1
  O  O2401  1  0.39164340  0.08194240  0.23035980  1
  O  O2402  1  0.39164340  0.08194240  0.43035980  1
  O  O2403  1  0.39164340  0.08194240  0.63035980  1
  O  O2404  1  0.39164340  0.08194240  0.83035980  1
  O  O2405  1  0.39164340  0.28194240  0.03035980  1
  O  O2406  1  0.39164340  0.28194240  0.23035980  1
  O  O2407  1  0.39164340  0.28194240  0.43035980  1
  O  O2408  1  0.39164340  0.28194240  0.63035980  1
  O  O2409  1  0.39164340  0.28194240  0.83035980  1
  O  O2410  1  0.39164340  0.48194240  0.03035980  1
  O  O2411  1  0.39164340  0.48194240  0.23035980  1
  O  O2412  1  0.39164340  0.48194240  0.43035980  1
  O  O2413  1  0.39164340  0.48194240  0.63035980  1
  O  O2414  1  0.39164340  0.48194240  0.83035980  1
  O  O2415  1  0.39164340  0.68194240  0.03035980  1
  O  O2416  1  0.39164340  0.68194240  0.23035980  1
  O  O2417  1  0.39164340  0.68194240  0.43035980  1
  O  O2418  1  0.39164340  0.68194240  0.63035980  1
  O  O2419  1  0.39164340  0.68194240  0.83035980  1
  O  O2420  1  0.39164340  0.88194240  0.03035980  1
  O  O2421  1  0.39164340  0.88194240  0.23035980  1
  O  O2422  1  0.39164340  0.88194240  0.43035980  1
  O  O2423  1  0.39164340  0.88194240  0.63035980  1
  O  O2424  1  0.39164340  0.88194240  0.83035980  1
  O  O2425  1  0.59164340  0.08194240  0.03035980  1
  O  O2426  1  0.59164340  0.08194240  0.23035980  1
  O  O2427  1  0.59164340  0.08194240  0.43035980  1
  O  O2428  1  0.59164340  0.08194240  0.63035980  1
  O  O2429  1  0.59164340  0.08194240  0.83035980  1
  O  O2430  1  0.59164340  0.28194240  0.03035980  1
  O  O2431  1  0.59164340  0.28194240  0.23035980  1
  O  O2432  1  0.59164340  0.28194240  0.43035980  1
  O  O2433  1  0.59164340  0.28194240  0.63035980  1
  O  O2434  1  0.59164340  0.28194240  0.83035980  1
  O  O2435  1  0.59164340  0.48194240  0.03035980  1
  O  O2436  1  0.59164340  0.48194240  0.23035980  1
  O  O2437  1  0.59164340  0.48194240  0.43035980  1
  O  O2438  1  0.59164340  0.48194240  0.63035980  1
  O  O2439  1  0.59164340  0.48194240  0.83035980  1
  O  O2440  1  0.59164340  0.68194240  0.03035980  1
  O  O2441  1  0.59164340  0.68194240  0.23035980  1
  O  O2442  1  0.59164340  0.68194240  0.43035980  1
  O  O2443  1  0.59164340  0.68194240  0.63035980  1
  O  O2444  1  0.59164340  0.68194240  0.83035980  1
  O  O2445  1  0.59164340  0.88194240  0.03035980  1
  O  O2446  1  0.59164340  0.88194240  0.23035980  1
  O  O2447  1  0.59164340  0.88194240  0.43035980  1
  O  O2448  1  0.59164340  0.88194240  0.63035980  1
  O  O2449  1  0.59164340  0.88194240  0.83035980  1
  O  O2450  1  0.79164340  0.08194240  0.03035980  1
  O  O2451  1  0.79164340  0.08194240  0.23035980  1
  O  O2452  1  0.79164340  0.08194240  0.43035980  1
  O  O2453  1  0.79164340  0.08194240  0.63035980  1
  O  O2454  1  0.79164340  0.08194240  0.83035980  1
  O  O2455  1  0.79164340  0.28194240  0.03035980  1
  O  O2456  1  0.79164340  0.28194240  0.23035980  1
  O  O2457  1  0.79164340  0.28194240  0.43035980  1
  O  O2458  1  0.79164340  0.28194240  0.63035980  1
  O  O2459  1  0.79164340  0.28194240  0.83035980  1
  O  O2460  1  0.79164340  0.48194240  0.03035980  1
  O  O2461  1  0.79164340  0.48194240  0.23035980  1
  O  O2462  1  0.79164340  0.48194240  0.43035980  1
  O  O2463  1  0.79164340  0.48194240  0.63035980  1
  O  O2464  1  0.79164340  0.48194240  0.83035980  1
  O  O2465  1  0.79164340  0.68194240  0.03035980  1
  O  O2466  1  0.79164340  0.68194240  0.23035980  1
  O  O2467  1  0.79164340  0.68194240  0.43035980  1
  O  O2468  1  0.79164340  0.68194240  0.63035980  1
  O  O2469  1  0.79164340  0.68194240  0.83035980  1
  O  O2470  1  0.79164340  0.88194240  0.03035980  1
  O  O2471  1  0.79164340  0.88194240  0.23035980  1
  O  O2472  1  0.79164340  0.88194240  0.43035980  1
  O  O2473  1  0.79164340  0.88194240  0.63035980  1
  O  O2474  1  0.79164340  0.88194240  0.83035980  1
  O  O2475  1  0.99164340  0.08194240  0.03035980  1
  O  O2476  1  0.99164340  0.08194240  0.23035980  1
  O  O2477  1  0.99164340  0.08194240  0.43035980  1
  O  O2478  1  0.99164340  0.08194240  0.63035980  1
  O  O2479  1  0.99164340  0.08194240  0.83035980  1
  O  O2480  1  0.99164340  0.28194240  0.03035980  1
  O  O2481  1  0.99164340  0.28194240  0.23035980  1
  O  O2482  1  0.99164340  0.28194240  0.43035980  1
  O  O2483  1  0.99164340  0.28194240  0.63035980  1
  O  O2484  1  0.99164340  0.28194240  0.83035980  1
  O  O2485  1  0.99164340  0.48194240  0.03035980  1
  O  O2486  1  0.99164340  0.48194240  0.23035980  1
  O  O2487  1  0.99164340  0.48194240  0.43035980  1
  O  O2488  1  0.99164340  0.48194240  0.63035980  1
  O  O2489  1  0.99164340  0.48194240  0.83035980  1
  O  O2490  1  0.99164340  0.68194240  0.03035980  1
  O  O2491  1  0.99164340  0.68194240  0.23035980  1
  O  O2492  1  0.99164340  0.68194240  0.43035980  1
  O  O2493  1  0.99164340  0.68194240  0.63035980  1
  O  O2494  1  0.99164340  0.68194240  0.83035980  1
  O  O2495  1  0.99164340  0.88194240  0.03035980  1
  O  O2496  1  0.99164340  0.88194240  0.23035980  1
  O  O2497  1  0.99164340  0.88194240  0.43035980  1
  O  O2498  1  0.99164340  0.88194240  0.63035980  1
  O  O2499  1  0.99164340  0.88194240  0.83035980  1
  O  O2500  1  0.15026460  0.00985380  0.00502540  1
  O  O2501  1  0.15026460  0.00985380  0.20502540  1
  O  O2502  1  0.15026460  0.00985380  0.40502540  1
  O  O2503  1  0.15026460  0.00985380  0.60502540  1
  O  O2504  1  0.15026460  0.00985380  0.80502540  1
  O  O2505  1  0.15026460  0.20985380  0.00502540  1
  O  O2506  1  0.15026460  0.20985380  0.20502540  1
  O  O2507  1  0.15026460  0.20985380  0.40502540  1
  O  O2508  1  0.15026460  0.20985380  0.60502540  1
  O  O2509  1  0.15026460  0.20985380  0.80502540  1
  O  O2510  1  0.15026460  0.40985380  0.00502540  1
  O  O2511  1  0.15026460  0.40985380  0.20502540  1
  O  O2512  1  0.15026460  0.40985380  0.40502540  1
  O  O2513  1  0.15026460  0.40985380  0.60502540  1
  O  O2514  1  0.15026460  0.40985380  0.80502540  1
  O  O2515  1  0.15026460  0.60985380  0.00502540  1
  O  O2516  1  0.15026460  0.60985380  0.20502540  1
  O  O2517  1  0.15026460  0.60985380  0.40502540  1
  O  O2518  1  0.15026460  0.60985380  0.60502540  1
  O  O2519  1  0.15026460  0.60985380  0.80502540  1
  O  O2520  1  0.15026460  0.80985380  0.00502540  1
  O  O2521  1  0.15026460  0.80985380  0.20502540  1
  O  O2522  1  0.15026460  0.80985380  0.40502540  1
  O  O2523  1  0.15026460  0.80985380  0.60502540  1
  O  O2524  1  0.15026460  0.80985380  0.80502540  1
  O  O2525  1  0.35026460  0.00985380  0.00502540  1
  O  O2526  1  0.35026460  0.00985380  0.20502540  1
  O  O2527  1  0.35026460  0.00985380  0.40502540  1
  O  O2528  1  0.35026460  0.00985380  0.60502540  1
  O  O2529  1  0.35026460  0.00985380  0.80502540  1
  O  O2530  1  0.35026460  0.20985380  0.00502540  1
  O  O2531  1  0.35026460  0.20985380  0.20502540  1
  O  O2532  1  0.35026460  0.20985380  0.40502540  1
  O  O2533  1  0.35026460  0.20985380  0.60502540  1
  O  O2534  1  0.35026460  0.20985380  0.80502540  1
  O  O2535  1  0.35026460  0.40985380  0.00502540  1
  O  O2536  1  0.35026460  0.40985380  0.20502540  1
  O  O2537  1  0.35026460  0.40985380  0.40502540  1
  O  O2538  1  0.35026460  0.40985380  0.60502540  1
  O  O2539  1  0.35026460  0.40985380  0.80502540  1
  O  O2540  1  0.35026460  0.60985380  0.00502540  1
  O  O2541  1  0.35026460  0.60985380  0.20502540  1
  O  O2542  1  0.35026460  0.60985380  0.40502540  1
  O  O2543  1  0.35026460  0.60985380  0.60502540  1
  O  O2544  1  0.35026460  0.60985380  0.80502540  1
  O  O2545  1  0.35026460  0.80985380  0.00502540  1
  O  O2546  1  0.35026460  0.80985380  0.20502540  1
  O  O2547  1  0.35026460  0.80985380  0.40502540  1
  O  O2548  1  0.35026460  0.80985380  0.60502540  1
  O  O2549  1  0.35026460  0.80985380  0.80502540  1
  O  O2550  1  0.55026460  0.00985380  0.00502540  1
  O  O2551  1  0.55026460  0.00985380  0.20502540  1
  O  O2552  1  0.55026460  0.00985380  0.40502540  1
  O  O2553  1  0.55026460  0.00985380  0.60502540  1
  O  O2554  1  0.55026460  0.00985380  0.80502540  1
  O  O2555  1  0.55026460  0.20985380  0.00502540  1
  O  O2556  1  0.55026460  0.20985380  0.20502540  1
  O  O2557  1  0.55026460  0.20985380  0.40502540  1
  O  O2558  1  0.55026460  0.20985380  0.60502540  1
  O  O2559  1  0.55026460  0.20985380  0.80502540  1
  O  O2560  1  0.55026460  0.40985380  0.00502540  1
  O  O2561  1  0.55026460  0.40985380  0.20502540  1
  O  O2562  1  0.55026460  0.40985380  0.40502540  1
  O  O2563  1  0.55026460  0.40985380  0.60502540  1
  O  O2564  1  0.55026460  0.40985380  0.80502540  1
  O  O2565  1  0.55026460  0.60985380  0.00502540  1
  O  O2566  1  0.55026460  0.60985380  0.20502540  1
  O  O2567  1  0.55026460  0.60985380  0.40502540  1
  O  O2568  1  0.55026460  0.60985380  0.60502540  1
  O  O2569  1  0.55026460  0.60985380  0.80502540  1
  O  O2570  1  0.55026460  0.80985380  0.00502540  1
  O  O2571  1  0.55026460  0.80985380  0.20502540  1
  O  O2572  1  0.55026460  0.80985380  0.40502540  1
  O  O2573  1  0.55026460  0.80985380  0.60502540  1
  O  O2574  1  0.55026460  0.80985380  0.80502540  1
  O  O2575  1  0.75026460  0.00985380  0.00502540  1
  O  O2576  1  0.75026460  0.00985380  0.20502540  1
  O  O2577  1  0.75026460  0.00985380  0.40502540  1
  O  O2578  1  0.75026460  0.00985380  0.60502540  1
  O  O2579  1  0.75026460  0.00985380  0.80502540  1
  O  O2580  1  0.75026460  0.20985380  0.00502540  1
  O  O2581  1  0.75026460  0.20985380  0.20502540  1
  O  O2582  1  0.75026460  0.20985380  0.40502540  1
  O  O2583  1  0.75026460  0.20985380  0.60502540  1
  O  O2584  1  0.75026460  0.20985380  0.80502540  1
  O  O2585  1  0.75026460  0.40985380  0.00502540  1
  O  O2586  1  0.75026460  0.40985380  0.20502540  1
  O  O2587  1  0.75026460  0.40985380  0.40502540  1
  O  O2588  1  0.75026460  0.40985380  0.60502540  1
  O  O2589  1  0.75026460  0.40985380  0.80502540  1
  O  O2590  1  0.75026460  0.60985380  0.00502540  1
  O  O2591  1  0.75026460  0.60985380  0.20502540  1
  O  O2592  1  0.75026460  0.60985380  0.40502540  1
  O  O2593  1  0.75026460  0.60985380  0.60502540  1
  O  O2594  1  0.75026460  0.60985380  0.80502540  1
  O  O2595  1  0.75026460  0.80985380  0.00502540  1
  O  O2596  1  0.75026460  0.80985380  0.20502540  1
  O  O2597  1  0.75026460  0.80985380  0.40502540  1
  O  O2598  1  0.75026460  0.80985380  0.60502540  1
  O  O2599  1  0.75026460  0.80985380  0.80502540  1
  O  O2600  1  0.95026460  0.00985380  0.00502540  1
  O  O2601  1  0.95026460  0.00985380  0.20502540  1
  O  O2602  1  0.95026460  0.00985380  0.40502540  1
  O  O2603  1  0.95026460  0.00985380  0.60502540  1
  O  O2604  1  0.95026460  0.00985380  0.80502540  1
  O  O2605  1  0.95026460  0.20985380  0.00502540  1
  O  O2606  1  0.95026460  0.20985380  0.20502540  1
  O  O2607  1  0.95026460  0.20985380  0.40502540  1
  O  O2608  1  0.95026460  0.20985380  0.60502540  1
  O  O2609  1  0.95026460  0.20985380  0.80502540  1
  O  O2610  1  0.95026460  0.40985380  0.00502540  1
  O  O2611  1  0.95026460  0.40985380  0.20502540  1
  O  O2612  1  0.95026460  0.40985380  0.40502540  1
  O  O2613  1  0.95026460  0.40985380  0.60502540  1
  O  O2614  1  0.95026460  0.40985380  0.80502540  1
  O  O2615  1  0.95026460  0.60985380  0.00502540  1
  O  O2616  1  0.95026460  0.60985380  0.20502540  1
  O  O2617  1  0.95026460  0.60985380  0.40502540  1
  O  O2618  1  0.95026460  0.60985380  0.60502540  1
  O  O2619  1  0.95026460  0.60985380  0.80502540  1
  O  O2620  1  0.95026460  0.80985380  0.00502540  1
  O  O2621  1  0.95026460  0.80985380  0.20502540  1
  O  O2622  1  0.95026460  0.80985380  0.40502540  1
  O  O2623  1  0.95026460  0.80985380  0.60502540  1
  O  O2624  1  0.95026460  0.80985380  0.80502540  1
  O  O2625  1  0.15715160  0.06724220  0.12812780  1
  O  O2626  1  0.15715160  0.06724220  0.32812780  1
  O  O2627  1  0.15715160  0.06724220  0.52812780  1
  O  O2628  1  0.15715160  0.06724220  0.72812780  1
  O  O2629  1  0.15715160  0.06724220  0.92812780  1
  O  O2630  1  0.15715160  0.26724220  0.12812780  1
  O  O2631  1  0.15715160  0.26724220  0.32812780  1
  O  O2632  1  0.15715160  0.26724220  0.52812780  1
  O  O2633  1  0.15715160  0.26724220  0.72812780  1
  O  O2634  1  0.15715160  0.26724220  0.92812780  1
  O  O2635  1  0.15715160  0.46724220  0.12812780  1
  O  O2636  1  0.15715160  0.46724220  0.32812780  1
  O  O2637  1  0.15715160  0.46724220  0.52812780  1
  O  O2638  1  0.15715160  0.46724220  0.72812780  1
  O  O2639  1  0.15715160  0.46724220  0.92812780  1
  O  O2640  1  0.15715160  0.66724220  0.12812780  1
  O  O2641  1  0.15715160  0.66724220  0.32812780  1
  O  O2642  1  0.15715160  0.66724220  0.52812780  1
  O  O2643  1  0.15715160  0.66724220  0.72812780  1
  O  O2644  1  0.15715160  0.66724220  0.92812780  1
  O  O2645  1  0.15715160  0.86724220  0.12812780  1
  O  O2646  1  0.15715160  0.86724220  0.32812780  1
  O  O2647  1  0.15715160  0.86724220  0.52812780  1
  O  O2648  1  0.15715160  0.86724220  0.72812780  1
  O  O2649  1  0.15715160  0.86724220  0.92812780  1
  O  O2650  1  0.35715160  0.06724220  0.12812780  1
  O  O2651  1  0.35715160  0.06724220  0.32812780  1
  O  O2652  1  0.35715160  0.06724220  0.52812780  1
  O  O2653  1  0.35715160  0.06724220  0.72812780  1
  O  O2654  1  0.35715160  0.06724220  0.92812780  1
  O  O2655  1  0.35715160  0.26724220  0.12812780  1
  O  O2656  1  0.35715160  0.26724220  0.32812780  1
  O  O2657  1  0.35715160  0.26724220  0.52812780  1
  O  O2658  1  0.35715160  0.26724220  0.72812780  1
  O  O2659  1  0.35715160  0.26724220  0.92812780  1
  O  O2660  1  0.35715160  0.46724220  0.12812780  1
  O  O2661  1  0.35715160  0.46724220  0.32812780  1
  O  O2662  1  0.35715160  0.46724220  0.52812780  1
  O  O2663  1  0.35715160  0.46724220  0.72812780  1
  O  O2664  1  0.35715160  0.46724220  0.92812780  1
  O  O2665  1  0.35715160  0.66724220  0.12812780  1
  O  O2666  1  0.35715160  0.66724220  0.32812780  1
  O  O2667  1  0.35715160  0.66724220  0.52812780  1
  O  O2668  1  0.35715160  0.66724220  0.72812780  1
  O  O2669  1  0.35715160  0.66724220  0.92812780  1
  O  O2670  1  0.35715160  0.86724220  0.12812780  1
  O  O2671  1  0.35715160  0.86724220  0.32812780  1
  O  O2672  1  0.35715160  0.86724220  0.52812780  1
  O  O2673  1  0.35715160  0.86724220  0.72812780  1
  O  O2674  1  0.35715160  0.86724220  0.92812780  1
  O  O2675  1  0.55715160  0.06724220  0.12812780  1
  O  O2676  1  0.55715160  0.06724220  0.32812780  1
  O  O2677  1  0.55715160  0.06724220  0.52812780  1
  O  O2678  1  0.55715160  0.06724220  0.72812780  1
  O  O2679  1  0.55715160  0.06724220  0.92812780  1
  O  O2680  1  0.55715160  0.26724220  0.12812780  1
  O  O2681  1  0.55715160  0.26724220  0.32812780  1
  O  O2682  1  0.55715160  0.26724220  0.52812780  1
  O  O2683  1  0.55715160  0.26724220  0.72812780  1
  O  O2684  1  0.55715160  0.26724220  0.92812780  1
  O  O2685  1  0.55715160  0.46724220  0.12812780  1
  O  O2686  1  0.55715160  0.46724220  0.32812780  1
  O  O2687  1  0.55715160  0.46724220  0.52812780  1
  O  O2688  1  0.55715160  0.46724220  0.72812780  1
  O  O2689  1  0.55715160  0.46724220  0.92812780  1
  O  O2690  1  0.55715160  0.66724220  0.12812780  1
  O  O2691  1  0.55715160  0.66724220  0.32812780  1
  O  O2692  1  0.55715160  0.66724220  0.52812780  1
  O  O2693  1  0.55715160  0.66724220  0.72812780  1
  O  O2694  1  0.55715160  0.66724220  0.92812780  1
  O  O2695  1  0.55715160  0.86724220  0.12812780  1
  O  O2696  1  0.55715160  0.86724220  0.32812780  1
  O  O2697  1  0.55715160  0.86724220  0.52812780  1
  O  O2698  1  0.55715160  0.86724220  0.72812780  1
  O  O2699  1  0.55715160  0.86724220  0.92812780  1
  O  O2700  1  0.75715160  0.06724220  0.12812780  1
  O  O2701  1  0.75715160  0.06724220  0.32812780  1
  O  O2702  1  0.75715160  0.06724220  0.52812780  1
  O  O2703  1  0.75715160  0.06724220  0.72812780  1
  O  O2704  1  0.75715160  0.06724220  0.92812780  1
  O  O2705  1  0.75715160  0.26724220  0.12812780  1
  O  O2706  1  0.75715160  0.26724220  0.32812780  1
  O  O2707  1  0.75715160  0.26724220  0.52812780  1
  O  O2708  1  0.75715160  0.26724220  0.72812780  1
  O  O2709  1  0.75715160  0.26724220  0.92812780  1
  O  O2710  1  0.75715160  0.46724220  0.12812780  1
  O  O2711  1  0.75715160  0.46724220  0.32812780  1
  O  O2712  1  0.75715160  0.46724220  0.52812780  1
  O  O2713  1  0.75715160  0.46724220  0.72812780  1
  O  O2714  1  0.75715160  0.46724220  0.92812780  1
  O  O2715  1  0.75715160  0.66724220  0.12812780  1
  O  O2716  1  0.75715160  0.66724220  0.32812780  1
  O  O2717  1  0.75715160  0.66724220  0.52812780  1
  O  O2718  1  0.75715160  0.66724220  0.72812780  1
  O  O2719  1  0.75715160  0.66724220  0.92812780  1
  O  O2720  1  0.75715160  0.86724220  0.12812780  1
  O  O2721  1  0.75715160  0.86724220  0.32812780  1
  O  O2722  1  0.75715160  0.86724220  0.52812780  1
  O  O2723  1  0.75715160  0.86724220  0.72812780  1
  O  O2724  1  0.75715160  0.86724220  0.92812780  1
  O  O2725  1  0.95715160  0.06724220  0.12812780  1
  O  O2726  1  0.95715160  0.06724220  0.32812780  1
  O  O2727  1  0.95715160  0.06724220  0.52812780  1
  O  O2728  1  0.95715160  0.06724220  0.72812780  1
  O  O2729  1  0.95715160  0.06724220  0.92812780  1
  O  O2730  1  0.95715160  0.26724220  0.12812780  1
  O  O2731  1  0.95715160  0.26724220  0.32812780  1
  O  O2732  1  0.95715160  0.26724220  0.52812780  1
  O  O2733  1  0.95715160  0.26724220  0.72812780  1
  O  O2734  1  0.95715160  0.26724220  0.92812780  1
  O  O2735  1  0.95715160  0.46724220  0.12812780  1
  O  O2736  1  0.95715160  0.46724220  0.32812780  1
  O  O2737  1  0.95715160  0.46724220  0.52812780  1
  O  O2738  1  0.95715160  0.46724220  0.72812780  1
  O  O2739  1  0.95715160  0.46724220  0.92812780  1
  O  O2740  1  0.95715160  0.66724220  0.12812780  1
  O  O2741  1  0.95715160  0.66724220  0.32812780  1
  O  O2742  1  0.95715160  0.66724220  0.52812780  1
  O  O2743  1  0.95715160  0.66724220  0.72812780  1
  O  O2744  1  0.95715160  0.66724220  0.92812780  1
  O  O2745  1  0.95715160  0.86724220  0.12812780  1
  O  O2746  1  0.95715160  0.86724220  0.32812780  1
  O  O2747  1  0.95715160  0.86724220  0.52812780  1
  O  O2748  1  0.95715160  0.86724220  0.72812780  1
  O  O2749  1  0.95715160  0.86724220  0.92812780  1
  O  O2750  1  0.14811560  0.05987820  0.18463020  1
  O  O2751  1  0.14811560  0.05987820  0.38463020  1
  O  O2752  1  0.14811560  0.05987820  0.58463020  1
  O  O2753  1  0.14811560  0.05987820  0.78463020  1
  O  O2754  1  0.14811560  0.05987820  0.98463020  1
  O  O2755  1  0.14811560  0.25987820  0.18463020  1
  O  O2756  1  0.14811560  0.25987820  0.38463020  1
  O  O2757  1  0.14811560  0.25987820  0.58463020  1
  O  O2758  1  0.14811560  0.25987820  0.78463020  1
  O  O2759  1  0.14811560  0.25987820  0.98463020  1
  O  O2760  1  0.14811560  0.45987820  0.18463020  1
  O  O2761  1  0.14811560  0.45987820  0.38463020  1
  O  O2762  1  0.14811560  0.45987820  0.58463020  1
  O  O2763  1  0.14811560  0.45987820  0.78463020  1
  O  O2764  1  0.14811560  0.45987820  0.98463020  1
  O  O2765  1  0.14811560  0.65987820  0.18463020  1
  O  O2766  1  0.14811560  0.65987820  0.38463020  1
  O  O2767  1  0.14811560  0.65987820  0.58463020  1
  O  O2768  1  0.14811560  0.65987820  0.78463020  1
  O  O2769  1  0.14811560  0.65987820  0.98463020  1
  O  O2770  1  0.14811560  0.85987820  0.18463020  1
  O  O2771  1  0.14811560  0.85987820  0.38463020  1
  O  O2772  1  0.14811560  0.85987820  0.58463020  1
  O  O2773  1  0.14811560  0.85987820  0.78463020  1
  O  O2774  1  0.14811560  0.85987820  0.98463020  1
  O  O2775  1  0.34811560  0.05987820  0.18463020  1
  O  O2776  1  0.34811560  0.05987820  0.38463020  1
  O  O2777  1  0.34811560  0.05987820  0.58463020  1
  O  O2778  1  0.34811560  0.05987820  0.78463020  1
  O  O2779  1  0.34811560  0.05987820  0.98463020  1
  O  O2780  1  0.34811560  0.25987820  0.18463020  1
  O  O2781  1  0.34811560  0.25987820  0.38463020  1
  O  O2782  1  0.34811560  0.25987820  0.58463020  1
  O  O2783  1  0.34811560  0.25987820  0.78463020  1
  O  O2784  1  0.34811560  0.25987820  0.98463020  1
  O  O2785  1  0.34811560  0.45987820  0.18463020  1
  O  O2786  1  0.34811560  0.45987820  0.38463020  1
  O  O2787  1  0.34811560  0.45987820  0.58463020  1
  O  O2788  1  0.34811560  0.45987820  0.78463020  1
  O  O2789  1  0.34811560  0.45987820  0.98463020  1
  O  O2790  1  0.34811560  0.65987820  0.18463020  1
  O  O2791  1  0.34811560  0.65987820  0.38463020  1
  O  O2792  1  0.34811560  0.65987820  0.58463020  1
  O  O2793  1  0.34811560  0.65987820  0.78463020  1
  O  O2794  1  0.34811560  0.65987820  0.98463020  1
  O  O2795  1  0.34811560  0.85987820  0.18463020  1
  O  O2796  1  0.34811560  0.85987820  0.38463020  1
  O  O2797  1  0.34811560  0.85987820  0.58463020  1
  O  O2798  1  0.34811560  0.85987820  0.78463020  1
  O  O2799  1  0.34811560  0.85987820  0.98463020  1
  O  O2800  1  0.54811560  0.05987820  0.18463020  1
  O  O2801  1  0.54811560  0.05987820  0.38463020  1
  O  O2802  1  0.54811560  0.05987820  0.58463020  1
  O  O2803  1  0.54811560  0.05987820  0.78463020  1
  O  O2804  1  0.54811560  0.05987820  0.98463020  1
  O  O2805  1  0.54811560  0.25987820  0.18463020  1
  O  O2806  1  0.54811560  0.25987820  0.38463020  1
  O  O2807  1  0.54811560  0.25987820  0.58463020  1
  O  O2808  1  0.54811560  0.25987820  0.78463020  1
  O  O2809  1  0.54811560  0.25987820  0.98463020  1
  O  O2810  1  0.54811560  0.45987820  0.18463020  1
  O  O2811  1  0.54811560  0.45987820  0.38463020  1
  O  O2812  1  0.54811560  0.45987820  0.58463020  1
  O  O2813  1  0.54811560  0.45987820  0.78463020  1
  O  O2814  1  0.54811560  0.45987820  0.98463020  1
  O  O2815  1  0.54811560  0.65987820  0.18463020  1
  O  O2816  1  0.54811560  0.65987820  0.38463020  1
  O  O2817  1  0.54811560  0.65987820  0.58463020  1
  O  O2818  1  0.54811560  0.65987820  0.78463020  1
  O  O2819  1  0.54811560  0.65987820  0.98463020  1
  O  O2820  1  0.54811560  0.85987820  0.18463020  1
  O  O2821  1  0.54811560  0.85987820  0.38463020  1
  O  O2822  1  0.54811560  0.85987820  0.58463020  1
  O  O2823  1  0.54811560  0.85987820  0.78463020  1
  O  O2824  1  0.54811560  0.85987820  0.98463020  1
  O  O2825  1  0.74811560  0.05987820  0.18463020  1
  O  O2826  1  0.74811560  0.05987820  0.38463020  1
  O  O2827  1  0.74811560  0.05987820  0.58463020  1
  O  O2828  1  0.74811560  0.05987820  0.78463020  1
  O  O2829  1  0.74811560  0.05987820  0.98463020  1
  O  O2830  1  0.74811560  0.25987820  0.18463020  1
  O  O2831  1  0.74811560  0.25987820  0.38463020  1
  O  O2832  1  0.74811560  0.25987820  0.58463020  1
  O  O2833  1  0.74811560  0.25987820  0.78463020  1
  O  O2834  1  0.74811560  0.25987820  0.98463020  1
  O  O2835  1  0.74811560  0.45987820  0.18463020  1
  O  O2836  1  0.74811560  0.45987820  0.38463020  1
  O  O2837  1  0.74811560  0.45987820  0.58463020  1
  O  O2838  1  0.74811560  0.45987820  0.78463020  1
  O  O2839  1  0.74811560  0.45987820  0.98463020  1
  O  O2840  1  0.74811560  0.65987820  0.18463020  1
  O  O2841  1  0.74811560  0.65987820  0.38463020  1
  O  O2842  1  0.74811560  0.65987820  0.58463020  1
  O  O2843  1  0.74811560  0.65987820  0.78463020  1
  O  O2844  1  0.74811560  0.65987820  0.98463020  1
  O  O2845  1  0.74811560  0.85987820  0.18463020  1
  O  O2846  1  0.74811560  0.85987820  0.38463020  1
  O  O2847  1  0.74811560  0.85987820  0.58463020  1
  O  O2848  1  0.74811560  0.85987820  0.78463020  1
  O  O2849  1  0.74811560  0.85987820  0.98463020  1
  O  O2850  1  0.94811560  0.05987820  0.18463020  1
  O  O2851  1  0.94811560  0.05987820  0.38463020  1
  O  O2852  1  0.94811560  0.05987820  0.58463020  1
  O  O2853  1  0.94811560  0.05987820  0.78463020  1
  O  O2854  1  0.94811560  0.05987820  0.98463020  1
  O  O2855  1  0.94811560  0.25987820  0.18463020  1
  O  O2856  1  0.94811560  0.25987820  0.38463020  1
  O  O2857  1  0.94811560  0.25987820  0.58463020  1
  O  O2858  1  0.94811560  0.25987820  0.78463020  1
  O  O2859  1  0.94811560  0.25987820  0.98463020  1
  O  O2860  1  0.94811560  0.45987820  0.18463020  1
  O  O2861  1  0.94811560  0.45987820  0.38463020  1
  O  O2862  1  0.94811560  0.45987820  0.58463020  1
  O  O2863  1  0.94811560  0.45987820  0.78463020  1
  O  O2864  1  0.94811560  0.45987820  0.98463020  1
  O  O2865  1  0.94811560  0.65987820  0.18463020  1
  O  O2866  1  0.94811560  0.65987820  0.38463020  1
  O  O2867  1  0.94811560  0.65987820  0.58463020  1
  O  O2868  1  0.94811560  0.65987820  0.78463020  1
  O  O2869  1  0.94811560  0.65987820  0.98463020  1
  O  O2870  1  0.94811560  0.85987820  0.18463020  1
  O  O2871  1  0.94811560  0.85987820  0.38463020  1
  O  O2872  1  0.94811560  0.85987820  0.58463020  1
  O  O2873  1  0.94811560  0.85987820  0.78463020  1
  O  O2874  1  0.94811560  0.85987820  0.98463020  1
  O  O2875  1  0.15566000  0.07683800  0.08142880  1
  O  O2876  1  0.15566000  0.07683800  0.28142880  1
  O  O2877  1  0.15566000  0.07683800  0.48142880  1
  O  O2878  1  0.15566000  0.07683800  0.68142880  1
  O  O2879  1  0.15566000  0.07683800  0.88142880  1
  O  O2880  1  0.15566000  0.27683800  0.08142880  1
  O  O2881  1  0.15566000  0.27683800  0.28142880  1
  O  O2882  1  0.15566000  0.27683800  0.48142880  1
  O  O2883  1  0.15566000  0.27683800  0.68142880  1
  O  O2884  1  0.15566000  0.27683800  0.88142880  1
  O  O2885  1  0.15566000  0.47683800  0.08142880  1
  O  O2886  1  0.15566000  0.47683800  0.28142880  1
  O  O2887  1  0.15566000  0.47683800  0.48142880  1
  O  O2888  1  0.15566000  0.47683800  0.68142880  1
  O  O2889  1  0.15566000  0.47683800  0.88142880  1
  O  O2890  1  0.15566000  0.67683800  0.08142880  1
  O  O2891  1  0.15566000  0.67683800  0.28142880  1
  O  O2892  1  0.15566000  0.67683800  0.48142880  1
  O  O2893  1  0.15566000  0.67683800  0.68142880  1
  O  O2894  1  0.15566000  0.67683800  0.88142880  1
  O  O2895  1  0.15566000  0.87683800  0.08142880  1
  O  O2896  1  0.15566000  0.87683800  0.28142880  1
  O  O2897  1  0.15566000  0.87683800  0.48142880  1
  O  O2898  1  0.15566000  0.87683800  0.68142880  1
  O  O2899  1  0.15566000  0.87683800  0.88142880  1
  O  O2900  1  0.35566000  0.07683800  0.08142880  1
  O  O2901  1  0.35566000  0.07683800  0.28142880  1
  O  O2902  1  0.35566000  0.07683800  0.48142880  1
  O  O2903  1  0.35566000  0.07683800  0.68142880  1
  O  O2904  1  0.35566000  0.07683800  0.88142880  1
  O  O2905  1  0.35566000  0.27683800  0.08142880  1
  O  O2906  1  0.35566000  0.27683800  0.28142880  1
  O  O2907  1  0.35566000  0.27683800  0.48142880  1
  O  O2908  1  0.35566000  0.27683800  0.68142880  1
  O  O2909  1  0.35566000  0.27683800  0.88142880  1
  O  O2910  1  0.35566000  0.47683800  0.08142880  1
  O  O2911  1  0.35566000  0.47683800  0.28142880  1
  O  O2912  1  0.35566000  0.47683800  0.48142880  1
  O  O2913  1  0.35566000  0.47683800  0.68142880  1
  O  O2914  1  0.35566000  0.47683800  0.88142880  1
  O  O2915  1  0.35566000  0.67683800  0.08142880  1
  O  O2916  1  0.35566000  0.67683800  0.28142880  1
  O  O2917  1  0.35566000  0.67683800  0.48142880  1
  O  O2918  1  0.35566000  0.67683800  0.68142880  1
  O  O2919  1  0.35566000  0.67683800  0.88142880  1
  O  O2920  1  0.35566000  0.87683800  0.08142880  1
  O  O2921  1  0.35566000  0.87683800  0.28142880  1
  O  O2922  1  0.35566000  0.87683800  0.48142880  1
  O  O2923  1  0.35566000  0.87683800  0.68142880  1
  O  O2924  1  0.35566000  0.87683800  0.88142880  1
  O  O2925  1  0.55566000  0.07683800  0.08142880  1
  O  O2926  1  0.55566000  0.07683800  0.28142880  1
  O  O2927  1  0.55566000  0.07683800  0.48142880  1
  O  O2928  1  0.55566000  0.07683800  0.68142880  1
  O  O2929  1  0.55566000  0.07683800  0.88142880  1
  O  O2930  1  0.55566000  0.27683800  0.08142880  1
  O  O2931  1  0.55566000  0.27683800  0.28142880  1
  O  O2932  1  0.55566000  0.27683800  0.48142880  1
  O  O2933  1  0.55566000  0.27683800  0.68142880  1
  O  O2934  1  0.55566000  0.27683800  0.88142880  1
  O  O2935  1  0.55566000  0.47683800  0.08142880  1
  O  O2936  1  0.55566000  0.47683800  0.28142880  1
  O  O2937  1  0.55566000  0.47683800  0.48142880  1
  O  O2938  1  0.55566000  0.47683800  0.68142880  1
  O  O2939  1  0.55566000  0.47683800  0.88142880  1
  O  O2940  1  0.55566000  0.67683800  0.08142880  1
  O  O2941  1  0.55566000  0.67683800  0.28142880  1
  O  O2942  1  0.55566000  0.67683800  0.48142880  1
  O  O2943  1  0.55566000  0.67683800  0.68142880  1
  O  O2944  1  0.55566000  0.67683800  0.88142880  1
  O  O2945  1  0.55566000  0.87683800  0.08142880  1
  O  O2946  1  0.55566000  0.87683800  0.28142880  1
  O  O2947  1  0.55566000  0.87683800  0.48142880  1
  O  O2948  1  0.55566000  0.87683800  0.68142880  1
  O  O2949  1  0.55566000  0.87683800  0.88142880  1
  O  O2950  1  0.75566000  0.07683800  0.08142880  1
  O  O2951  1  0.75566000  0.07683800  0.28142880  1
  O  O2952  1  0.75566000  0.07683800  0.48142880  1
  O  O2953  1  0.75566000  0.07683800  0.68142880  1
  O  O2954  1  0.75566000  0.07683800  0.88142880  1
  O  O2955  1  0.75566000  0.27683800  0.08142880  1
  O  O2956  1  0.75566000  0.27683800  0.28142880  1
  O  O2957  1  0.75566000  0.27683800  0.48142880  1
  O  O2958  1  0.75566000  0.27683800  0.68142880  1
  O  O2959  1  0.75566000  0.27683800  0.88142880  1
  O  O2960  1  0.75566000  0.47683800  0.08142880  1
  O  O2961  1  0.75566000  0.47683800  0.28142880  1
  O  O2962  1  0.75566000  0.47683800  0.48142880  1
  O  O2963  1  0.75566000  0.47683800  0.68142880  1
  O  O2964  1  0.75566000  0.47683800  0.88142880  1
  O  O2965  1  0.75566000  0.67683800  0.08142880  1
  O  O2966  1  0.75566000  0.67683800  0.28142880  1
  O  O2967  1  0.75566000  0.67683800  0.48142880  1
  O  O2968  1  0.75566000  0.67683800  0.68142880  1
  O  O2969  1  0.75566000  0.67683800  0.88142880  1
  O  O2970  1  0.75566000  0.87683800  0.08142880  1
  O  O2971  1  0.75566000  0.87683800  0.28142880  1
  O  O2972  1  0.75566000  0.87683800  0.48142880  1
  O  O2973  1  0.75566000  0.87683800  0.68142880  1
  O  O2974  1  0.75566000  0.87683800  0.88142880  1
  O  O2975  1  0.95566000  0.07683800  0.08142880  1
  O  O2976  1  0.95566000  0.07683800  0.28142880  1
  O  O2977  1  0.95566000  0.07683800  0.48142880  1
  O  O2978  1  0.95566000  0.07683800  0.68142880  1
  O  O2979  1  0.95566000  0.07683800  0.88142880  1
  O  O2980  1  0.95566000  0.27683800  0.08142880  1
  O  O2981  1  0.95566000  0.27683800  0.28142880  1
  O  O2982  1  0.95566000  0.27683800  0.48142880  1
  O  O2983  1  0.95566000  0.27683800  0.68142880  1
  O  O2984  1  0.95566000  0.27683800  0.88142880  1
  O  O2985  1  0.95566000  0.47683800  0.08142880  1
  O  O2986  1  0.95566000  0.47683800  0.28142880  1
  O  O2987  1  0.95566000  0.47683800  0.48142880  1
  O  O2988  1  0.95566000  0.47683800  0.68142880  1
  O  O2989  1  0.95566000  0.47683800  0.88142880  1
  O  O2990  1  0.95566000  0.67683800  0.08142880  1
  O  O2991  1  0.95566000  0.67683800  0.28142880  1
  O  O2992  1  0.95566000  0.67683800  0.48142880  1
  O  O2993  1  0.95566000  0.67683800  0.68142880  1
  O  O2994  1  0.95566000  0.67683800  0.88142880  1
  O  O2995  1  0.95566000  0.87683800  0.08142880  1
  O  O2996  1  0.95566000  0.87683800  0.28142880  1
  O  O2997  1  0.95566000  0.87683800  0.48142880  1
  O  O2998  1  0.95566000  0.87683800  0.68142880  1
  O  O2999  1  0.95566000  0.87683800  0.88142880  1
  O  O3000  1  0.17367600  0.16284640  0.16265440  1
  O  O3001  1  0.17367600  0.16284640  0.36265440  1
  O  O3002  1  0.17367600  0.16284640  0.56265440  1
  O  O3003  1  0.17367600  0.16284640  0.76265440  1
  O  O3004  1  0.17367600  0.16284640  0.96265440  1
  O  O3005  1  0.17367600  0.36284640  0.16265440  1
  O  O3006  1  0.17367600  0.36284640  0.36265440  1
  O  O3007  1  0.17367600  0.36284640  0.56265440  1
  O  O3008  1  0.17367600  0.36284640  0.76265440  1
  O  O3009  1  0.17367600  0.36284640  0.96265440  1
  O  O3010  1  0.17367600  0.56284640  0.16265440  1
  O  O3011  1  0.17367600  0.56284640  0.36265440  1
  O  O3012  1  0.17367600  0.56284640  0.56265440  1
  O  O3013  1  0.17367600  0.56284640  0.76265440  1
  O  O3014  1  0.17367600  0.56284640  0.96265440  1
  O  O3015  1  0.17367600  0.76284640  0.16265440  1
  O  O3016  1  0.17367600  0.76284640  0.36265440  1
  O  O3017  1  0.17367600  0.76284640  0.56265440  1
  O  O3018  1  0.17367600  0.76284640  0.76265440  1
  O  O3019  1  0.17367600  0.76284640  0.96265440  1
  O  O3020  1  0.17367600  0.96284640  0.16265440  1
  O  O3021  1  0.17367600  0.96284640  0.36265440  1
  O  O3022  1  0.17367600  0.96284640  0.56265440  1
  O  O3023  1  0.17367600  0.96284640  0.76265440  1
  O  O3024  1  0.17367600  0.96284640  0.96265440  1
  O  O3025  1  0.37367600  0.16284640  0.16265440  1
  O  O3026  1  0.37367600  0.16284640  0.36265440  1
  O  O3027  1  0.37367600  0.16284640  0.56265440  1
  O  O3028  1  0.37367600  0.16284640  0.76265440  1
  O  O3029  1  0.37367600  0.16284640  0.96265440  1
  O  O3030  1  0.37367600  0.36284640  0.16265440  1
  O  O3031  1  0.37367600  0.36284640  0.36265440  1
  O  O3032  1  0.37367600  0.36284640  0.56265440  1
  O  O3033  1  0.37367600  0.36284640  0.76265440  1
  O  O3034  1  0.37367600  0.36284640  0.96265440  1
  O  O3035  1  0.37367600  0.56284640  0.16265440  1
  O  O3036  1  0.37367600  0.56284640  0.36265440  1
  O  O3037  1  0.37367600  0.56284640  0.56265440  1
  O  O3038  1  0.37367600  0.56284640  0.76265440  1
  O  O3039  1  0.37367600  0.56284640  0.96265440  1
  O  O3040  1  0.37367600  0.76284640  0.16265440  1
  O  O3041  1  0.37367600  0.76284640  0.36265440  1
  O  O3042  1  0.37367600  0.76284640  0.56265440  1
  O  O3043  1  0.37367600  0.76284640  0.76265440  1
  O  O3044  1  0.37367600  0.76284640  0.96265440  1
  O  O3045  1  0.37367600  0.96284640  0.16265440  1
  O  O3046  1  0.37367600  0.96284640  0.36265440  1
  O  O3047  1  0.37367600  0.96284640  0.56265440  1
  O  O3048  1  0.37367600  0.96284640  0.76265440  1
  O  O3049  1  0.37367600  0.96284640  0.96265440  1
  O  O3050  1  0.57367600  0.16284640  0.16265440  1
  O  O3051  1  0.57367600  0.16284640  0.36265440  1
  O  O3052  1  0.57367600  0.16284640  0.56265440  1
  O  O3053  1  0.57367600  0.16284640  0.76265440  1
  O  O3054  1  0.57367600  0.16284640  0.96265440  1
  O  O3055  1  0.57367600  0.36284640  0.16265440  1
  O  O3056  1  0.57367600  0.36284640  0.36265440  1
  O  O3057  1  0.57367600  0.36284640  0.56265440  1
  O  O3058  1  0.57367600  0.36284640  0.76265440  1
  O  O3059  1  0.57367600  0.36284640  0.96265440  1
  O  O3060  1  0.57367600  0.56284640  0.16265440  1
  O  O3061  1  0.57367600  0.56284640  0.36265440  1
  O  O3062  1  0.57367600  0.56284640  0.56265440  1
  O  O3063  1  0.57367600  0.56284640  0.76265440  1
  O  O3064  1  0.57367600  0.56284640  0.96265440  1
  O  O3065  1  0.57367600  0.76284640  0.16265440  1
  O  O3066  1  0.57367600  0.76284640  0.36265440  1
  O  O3067  1  0.57367600  0.76284640  0.56265440  1
  O  O3068  1  0.57367600  0.76284640  0.76265440  1
  O  O3069  1  0.57367600  0.76284640  0.96265440  1
  O  O3070  1  0.57367600  0.96284640  0.16265440  1
  O  O3071  1  0.57367600  0.96284640  0.36265440  1
  O  O3072  1  0.57367600  0.96284640  0.56265440  1
  O  O3073  1  0.57367600  0.96284640  0.76265440  1
  O  O3074  1  0.57367600  0.96284640  0.96265440  1
  O  O3075  1  0.77367600  0.16284640  0.16265440  1
  O  O3076  1  0.77367600  0.16284640  0.36265440  1
  O  O3077  1  0.77367600  0.16284640  0.56265440  1
  O  O3078  1  0.77367600  0.16284640  0.76265440  1
  O  O3079  1  0.77367600  0.16284640  0.96265440  1
  O  O3080  1  0.77367600  0.36284640  0.16265440  1
  O  O3081  1  0.77367600  0.36284640  0.36265440  1
  O  O3082  1  0.77367600  0.36284640  0.56265440  1
  O  O3083  1  0.77367600  0.36284640  0.76265440  1
  O  O3084  1  0.77367600  0.36284640  0.96265440  1
  O  O3085  1  0.77367600  0.56284640  0.16265440  1
  O  O3086  1  0.77367600  0.56284640  0.36265440  1
  O  O3087  1  0.77367600  0.56284640  0.56265440  1
  O  O3088  1  0.77367600  0.56284640  0.76265440  1
  O  O3089  1  0.77367600  0.56284640  0.96265440  1
  O  O3090  1  0.77367600  0.76284640  0.16265440  1
  O  O3091  1  0.77367600  0.76284640  0.36265440  1
  O  O3092  1  0.77367600  0.76284640  0.56265440  1
  O  O3093  1  0.77367600  0.76284640  0.76265440  1
  O  O3094  1  0.77367600  0.76284640  0.96265440  1
  O  O3095  1  0.77367600  0.96284640  0.16265440  1
  O  O3096  1  0.77367600  0.96284640  0.36265440  1
  O  O3097  1  0.77367600  0.96284640  0.56265440  1
  O  O3098  1  0.77367600  0.96284640  0.76265440  1
  O  O3099  1  0.77367600  0.96284640  0.96265440  1
  O  O3100  1  0.97367600  0.16284640  0.16265440  1
  O  O3101  1  0.97367600  0.16284640  0.36265440  1
  O  O3102  1  0.97367600  0.16284640  0.56265440  1
  O  O3103  1  0.97367600  0.16284640  0.76265440  1
  O  O3104  1  0.97367600  0.16284640  0.96265440  1
  O  O3105  1  0.97367600  0.36284640  0.16265440  1
  O  O3106  1  0.97367600  0.36284640  0.36265440  1
  O  O3107  1  0.97367600  0.36284640  0.56265440  1
  O  O3108  1  0.97367600  0.36284640  0.76265440  1
  O  O3109  1  0.97367600  0.36284640  0.96265440  1
  O  O3110  1  0.97367600  0.56284640  0.16265440  1
  O  O3111  1  0.97367600  0.56284640  0.36265440  1
  O  O3112  1  0.97367600  0.56284640  0.56265440  1
  O  O3113  1  0.97367600  0.56284640  0.76265440  1
  O  O3114  1  0.97367600  0.56284640  0.96265440  1
  O  O3115  1  0.97367600  0.76284640  0.16265440  1
  O  O3116  1  0.97367600  0.76284640  0.36265440  1
  O  O3117  1  0.97367600  0.76284640  0.56265440  1
  O  O3118  1  0.97367600  0.76284640  0.76265440  1
  O  O3119  1  0.97367600  0.76284640  0.96265440  1
  O  O3120  1  0.97367600  0.96284640  0.16265440  1
  O  O3121  1  0.97367600  0.96284640  0.36265440  1
  O  O3122  1  0.97367600  0.96284640  0.56265440  1
  O  O3123  1  0.97367600  0.96284640  0.76265440  1
  O  O3124  1  0.97367600  0.96284640  0.96265440  1
  O  O3125  1  0.17140480  0.14992720  0.01925980  1
  O  O3126  1  0.17140480  0.14992720  0.21925980  1
  O  O3127  1  0.17140480  0.14992720  0.41925980  1
  O  O3128  1  0.17140480  0.14992720  0.61925980  1
  O  O3129  1  0.17140480  0.14992720  0.81925980  1
  O  O3130  1  0.17140480  0.34992720  0.01925980  1
  O  O3131  1  0.17140480  0.34992720  0.21925980  1
  O  O3132  1  0.17140480  0.34992720  0.41925980  1
  O  O3133  1  0.17140480  0.34992720  0.61925980  1
  O  O3134  1  0.17140480  0.34992720  0.81925980  1
  O  O3135  1  0.17140480  0.54992720  0.01925980  1
  O  O3136  1  0.17140480  0.54992720  0.21925980  1
  O  O3137  1  0.17140480  0.54992720  0.41925980  1
  O  O3138  1  0.17140480  0.54992720  0.61925980  1
  O  O3139  1  0.17140480  0.54992720  0.81925980  1
  O  O3140  1  0.17140480  0.74992720  0.01925980  1
  O  O3141  1  0.17140480  0.74992720  0.21925980  1
  O  O3142  1  0.17140480  0.74992720  0.41925980  1
  O  O3143  1  0.17140480  0.74992720  0.61925980  1
  O  O3144  1  0.17140480  0.74992720  0.81925980  1
  O  O3145  1  0.17140480  0.94992720  0.01925980  1
  O  O3146  1  0.17140480  0.94992720  0.21925980  1
  O  O3147  1  0.17140480  0.94992720  0.41925980  1
  O  O3148  1  0.17140480  0.94992720  0.61925980  1
  O  O3149  1  0.17140480  0.94992720  0.81925980  1
  O  O3150  1  0.37140480  0.14992720  0.01925980  1
  O  O3151  1  0.37140480  0.14992720  0.21925980  1
  O  O3152  1  0.37140480  0.14992720  0.41925980  1
  O  O3153  1  0.37140480  0.14992720  0.61925980  1
  O  O3154  1  0.37140480  0.14992720  0.81925980  1
  O  O3155  1  0.37140480  0.34992720  0.01925980  1
  O  O3156  1  0.37140480  0.34992720  0.21925980  1
  O  O3157  1  0.37140480  0.34992720  0.41925980  1
  O  O3158  1  0.37140480  0.34992720  0.61925980  1
  O  O3159  1  0.37140480  0.34992720  0.81925980  1
  O  O3160  1  0.37140480  0.54992720  0.01925980  1
  O  O3161  1  0.37140480  0.54992720  0.21925980  1
  O  O3162  1  0.37140480  0.54992720  0.41925980  1
  O  O3163  1  0.37140480  0.54992720  0.61925980  1
  O  O3164  1  0.37140480  0.54992720  0.81925980  1
  O  O3165  1  0.37140480  0.74992720  0.01925980  1
  O  O3166  1  0.37140480  0.74992720  0.21925980  1
  O  O3167  1  0.37140480  0.74992720  0.41925980  1
  O  O3168  1  0.37140480  0.74992720  0.61925980  1
  O  O3169  1  0.37140480  0.74992720  0.81925980  1
  O  O3170  1  0.37140480  0.94992720  0.01925980  1
  O  O3171  1  0.37140480  0.94992720  0.21925980  1
  O  O3172  1  0.37140480  0.94992720  0.41925980  1
  O  O3173  1  0.37140480  0.94992720  0.61925980  1
  O  O3174  1  0.37140480  0.94992720  0.81925980  1
  O  O3175  1  0.57140480  0.14992720  0.01925980  1
  O  O3176  1  0.57140480  0.14992720  0.21925980  1
  O  O3177  1  0.57140480  0.14992720  0.41925980  1
  O  O3178  1  0.57140480  0.14992720  0.61925980  1
  O  O3179  1  0.57140480  0.14992720  0.81925980  1
  O  O3180  1  0.57140480  0.34992720  0.01925980  1
  O  O3181  1  0.57140480  0.34992720  0.21925980  1
  O  O3182  1  0.57140480  0.34992720  0.41925980  1
  O  O3183  1  0.57140480  0.34992720  0.61925980  1
  O  O3184  1  0.57140480  0.34992720  0.81925980  1
  O  O3185  1  0.57140480  0.54992720  0.01925980  1
  O  O3186  1  0.57140480  0.54992720  0.21925980  1
  O  O3187  1  0.57140480  0.54992720  0.41925980  1
  O  O3188  1  0.57140480  0.54992720  0.61925980  1
  O  O3189  1  0.57140480  0.54992720  0.81925980  1
  O  O3190  1  0.57140480  0.74992720  0.01925980  1
  O  O3191  1  0.57140480  0.74992720  0.21925980  1
  O  O3192  1  0.57140480  0.74992720  0.41925980  1
  O  O3193  1  0.57140480  0.74992720  0.61925980  1
  O  O3194  1  0.57140480  0.74992720  0.81925980  1
  O  O3195  1  0.57140480  0.94992720  0.01925980  1
  O  O3196  1  0.57140480  0.94992720  0.21925980  1
  O  O3197  1  0.57140480  0.94992720  0.41925980  1
  O  O3198  1  0.57140480  0.94992720  0.61925980  1
  O  O3199  1  0.57140480  0.94992720  0.81925980  1
  O  O3200  1  0.77140480  0.14992720  0.01925980  1
  O  O3201  1  0.77140480  0.14992720  0.21925980  1
  O  O3202  1  0.77140480  0.14992720  0.41925980  1
  O  O3203  1  0.77140480  0.14992720  0.61925980  1
  O  O3204  1  0.77140480  0.14992720  0.81925980  1
  O  O3205  1  0.77140480  0.34992720  0.01925980  1
  O  O3206  1  0.77140480  0.34992720  0.21925980  1
  O  O3207  1  0.77140480  0.34992720  0.41925980  1
  O  O3208  1  0.77140480  0.34992720  0.61925980  1
  O  O3209  1  0.77140480  0.34992720  0.81925980  1
  O  O3210  1  0.77140480  0.54992720  0.01925980  1
  O  O3211  1  0.77140480  0.54992720  0.21925980  1
  O  O3212  1  0.77140480  0.54992720  0.41925980  1
  O  O3213  1  0.77140480  0.54992720  0.61925980  1
  O  O3214  1  0.77140480  0.54992720  0.81925980  1
  O  O3215  1  0.77140480  0.74992720  0.01925980  1
  O  O3216  1  0.77140480  0.74992720  0.21925980  1
  O  O3217  1  0.77140480  0.74992720  0.41925980  1
  O  O3218  1  0.77140480  0.74992720  0.61925980  1
  O  O3219  1  0.77140480  0.74992720  0.81925980  1
  O  O3220  1  0.77140480  0.94992720  0.01925980  1
  O  O3221  1  0.77140480  0.94992720  0.21925980  1
  O  O3222  1  0.77140480  0.94992720  0.41925980  1
  O  O3223  1  0.77140480  0.94992720  0.61925980  1
  O  O3224  1  0.77140480  0.94992720  0.81925980  1
  O  O3225  1  0.97140480  0.14992720  0.01925980  1
  O  O3226  1  0.97140480  0.14992720  0.21925980  1
  O  O3227  1  0.97140480  0.14992720  0.41925980  1
  O  O3228  1  0.97140480  0.14992720  0.61925980  1
  O  O3229  1  0.97140480  0.14992720  0.81925980  1
  O  O3230  1  0.97140480  0.34992720  0.01925980  1
  O  O3231  1  0.97140480  0.34992720  0.21925980  1
  O  O3232  1  0.97140480  0.34992720  0.41925980  1
  O  O3233  1  0.97140480  0.34992720  0.61925980  1
  O  O3234  1  0.97140480  0.34992720  0.81925980  1
  O  O3235  1  0.97140480  0.54992720  0.01925980  1
  O  O3236  1  0.97140480  0.54992720  0.21925980  1
  O  O3237  1  0.97140480  0.54992720  0.41925980  1
  O  O3238  1  0.97140480  0.54992720  0.61925980  1
  O  O3239  1  0.97140480  0.54992720  0.81925980  1
  O  O3240  1  0.97140480  0.74992720  0.01925980  1
  O  O3241  1  0.97140480  0.74992720  0.21925980  1
  O  O3242  1  0.97140480  0.74992720  0.41925980  1
  O  O3243  1  0.97140480  0.74992720  0.61925980  1
  O  O3244  1  0.97140480  0.74992720  0.81925980  1
  O  O3245  1  0.97140480  0.94992720  0.01925980  1
  O  O3246  1  0.97140480  0.94992720  0.21925980  1
  O  O3247  1  0.97140480  0.94992720  0.41925980  1
  O  O3248  1  0.97140480  0.94992720  0.61925980  1
  O  O3249  1  0.97140480  0.94992720  0.81925980  1
  O  O3250  1  0.16162120  0.14792220  0.06727180  1
  O  O3251  1  0.16162120  0.14792220  0.26727180  1
  O  O3252  1  0.16162120  0.14792220  0.46727180  1
  O  O3253  1  0.16162120  0.14792220  0.66727180  1
  O  O3254  1  0.16162120  0.14792220  0.86727180  1
  O  O3255  1  0.16162120  0.34792220  0.06727180  1
  O  O3256  1  0.16162120  0.34792220  0.26727180  1
  O  O3257  1  0.16162120  0.34792220  0.46727180  1
  O  O3258  1  0.16162120  0.34792220  0.66727180  1
  O  O3259  1  0.16162120  0.34792220  0.86727180  1
  O  O3260  1  0.16162120  0.54792220  0.06727180  1
  O  O3261  1  0.16162120  0.54792220  0.26727180  1
  O  O3262  1  0.16162120  0.54792220  0.46727180  1
  O  O3263  1  0.16162120  0.54792220  0.66727180  1
  O  O3264  1  0.16162120  0.54792220  0.86727180  1
  O  O3265  1  0.16162120  0.74792220  0.06727180  1
  O  O3266  1  0.16162120  0.74792220  0.26727180  1
  O  O3267  1  0.16162120  0.74792220  0.46727180  1
  O  O3268  1  0.16162120  0.74792220  0.66727180  1
  O  O3269  1  0.16162120  0.74792220  0.86727180  1
  O  O3270  1  0.16162120  0.94792220  0.06727180  1
  O  O3271  1  0.16162120  0.94792220  0.26727180  1
  O  O3272  1  0.16162120  0.94792220  0.46727180  1
  O  O3273  1  0.16162120  0.94792220  0.66727180  1
  O  O3274  1  0.16162120  0.94792220  0.86727180  1
  O  O3275  1  0.36162120  0.14792220  0.06727180  1
  O  O3276  1  0.36162120  0.14792220  0.26727180  1
  O  O3277  1  0.36162120  0.14792220  0.46727180  1
  O  O3278  1  0.36162120  0.14792220  0.66727180  1
  O  O3279  1  0.36162120  0.14792220  0.86727180  1
  O  O3280  1  0.36162120  0.34792220  0.06727180  1
  O  O3281  1  0.36162120  0.34792220  0.26727180  1
  O  O3282  1  0.36162120  0.34792220  0.46727180  1
  O  O3283  1  0.36162120  0.34792220  0.66727180  1
  O  O3284  1  0.36162120  0.34792220  0.86727180  1
  O  O3285  1  0.36162120  0.54792220  0.06727180  1
  O  O3286  1  0.36162120  0.54792220  0.26727180  1
  O  O3287  1  0.36162120  0.54792220  0.46727180  1
  O  O3288  1  0.36162120  0.54792220  0.66727180  1
  O  O3289  1  0.36162120  0.54792220  0.86727180  1
  O  O3290  1  0.36162120  0.74792220  0.06727180  1
  O  O3291  1  0.36162120  0.74792220  0.26727180  1
  O  O3292  1  0.36162120  0.74792220  0.46727180  1
  O  O3293  1  0.36162120  0.74792220  0.66727180  1
  O  O3294  1  0.36162120  0.74792220  0.86727180  1
  O  O3295  1  0.36162120  0.94792220  0.06727180  1
  O  O3296  1  0.36162120  0.94792220  0.26727180  1
  O  O3297  1  0.36162120  0.94792220  0.46727180  1
  O  O3298  1  0.36162120  0.94792220  0.66727180  1
  O  O3299  1  0.36162120  0.94792220  0.86727180  1
  O  O3300  1  0.56162120  0.14792220  0.06727180  1
  O  O3301  1  0.56162120  0.14792220  0.26727180  1
  O  O3302  1  0.56162120  0.14792220  0.46727180  1
  O  O3303  1  0.56162120  0.14792220  0.66727180  1
  O  O3304  1  0.56162120  0.14792220  0.86727180  1
  O  O3305  1  0.56162120  0.34792220  0.06727180  1
  O  O3306  1  0.56162120  0.34792220  0.26727180  1
  O  O3307  1  0.56162120  0.34792220  0.46727180  1
  O  O3308  1  0.56162120  0.34792220  0.66727180  1
  O  O3309  1  0.56162120  0.34792220  0.86727180  1
  O  O3310  1  0.56162120  0.54792220  0.06727180  1
  O  O3311  1  0.56162120  0.54792220  0.26727180  1
  O  O3312  1  0.56162120  0.54792220  0.46727180  1
  O  O3313  1  0.56162120  0.54792220  0.66727180  1
  O  O3314  1  0.56162120  0.54792220  0.86727180  1
  O  O3315  1  0.56162120  0.74792220  0.06727180  1
  O  O3316  1  0.56162120  0.74792220  0.26727180  1
  O  O3317  1  0.56162120  0.74792220  0.46727180  1
  O  O3318  1  0.56162120  0.74792220  0.66727180  1
  O  O3319  1  0.56162120  0.74792220  0.86727180  1
  O  O3320  1  0.56162120  0.94792220  0.06727180  1
  O  O3321  1  0.56162120  0.94792220  0.26727180  1
  O  O3322  1  0.56162120  0.94792220  0.46727180  1
  O  O3323  1  0.56162120  0.94792220  0.66727180  1
  O  O3324  1  0.56162120  0.94792220  0.86727180  1
  O  O3325  1  0.76162120  0.14792220  0.06727180  1
  O  O3326  1  0.76162120  0.14792220  0.26727180  1
  O  O3327  1  0.76162120  0.14792220  0.46727180  1
  O  O3328  1  0.76162120  0.14792220  0.66727180  1
  O  O3329  1  0.76162120  0.14792220  0.86727180  1
  O  O3330  1  0.76162120  0.34792220  0.06727180  1
  O  O3331  1  0.76162120  0.34792220  0.26727180  1
  O  O3332  1  0.76162120  0.34792220  0.46727180  1
  O  O3333  1  0.76162120  0.34792220  0.66727180  1
  O  O3334  1  0.76162120  0.34792220  0.86727180  1
  O  O3335  1  0.76162120  0.54792220  0.06727180  1
  O  O3336  1  0.76162120  0.54792220  0.26727180  1
  O  O3337  1  0.76162120  0.54792220  0.46727180  1
  O  O3338  1  0.76162120  0.54792220  0.66727180  1
  O  O3339  1  0.76162120  0.54792220  0.86727180  1
  O  O3340  1  0.76162120  0.74792220  0.06727180  1
  O  O3341  1  0.76162120  0.74792220  0.26727180  1
  O  O3342  1  0.76162120  0.74792220  0.46727180  1
  O  O3343  1  0.76162120  0.74792220  0.66727180  1
  O  O3344  1  0.76162120  0.74792220  0.86727180  1
  O  O3345  1  0.76162120  0.94792220  0.06727180  1
  O  O3346  1  0.76162120  0.94792220  0.26727180  1
  O  O3347  1  0.76162120  0.94792220  0.46727180  1
  O  O3348  1  0.76162120  0.94792220  0.66727180  1
  O  O3349  1  0.76162120  0.94792220  0.86727180  1
  O  O3350  1  0.96162120  0.14792220  0.06727180  1
  O  O3351  1  0.96162120  0.14792220  0.26727180  1
  O  O3352  1  0.96162120  0.14792220  0.46727180  1
  O  O3353  1  0.96162120  0.14792220  0.66727180  1
  O  O3354  1  0.96162120  0.14792220  0.86727180  1
  O  O3355  1  0.96162120  0.34792220  0.06727180  1
  O  O3356  1  0.96162120  0.34792220  0.26727180  1
  O  O3357  1  0.96162120  0.34792220  0.46727180  1
  O  O3358  1  0.96162120  0.34792220  0.66727180  1
  O  O3359  1  0.96162120  0.34792220  0.86727180  1
  O  O3360  1  0.96162120  0.54792220  0.06727180  1
  O  O3361  1  0.96162120  0.54792220  0.26727180  1
  O  O3362  1  0.96162120  0.54792220  0.46727180  1
  O  O3363  1  0.96162120  0.54792220  0.66727180  1
  O  O3364  1  0.96162120  0.54792220  0.86727180  1
  O  O3365  1  0.96162120  0.74792220  0.06727180  1
  O  O3366  1  0.96162120  0.74792220  0.26727180  1
  O  O3367  1  0.96162120  0.74792220  0.46727180  1
  O  O3368  1  0.96162120  0.74792220  0.66727180  1
  O  O3369  1  0.96162120  0.74792220  0.86727180  1
  O  O3370  1  0.96162120  0.94792220  0.06727180  1
  O  O3371  1  0.96162120  0.94792220  0.26727180  1
  O  O3372  1  0.96162120  0.94792220  0.46727180  1
  O  O3373  1  0.96162120  0.94792220  0.66727180  1
  O  O3374  1  0.96162120  0.94792220  0.86727180  1
  O  O3375  1  0.12858300  0.12577740  0.12080900  1
  O  O3376  1  0.12858300  0.12577740  0.32080900  1
  O  O3377  1  0.12858300  0.12577740  0.52080900  1
  O  O3378  1  0.12858300  0.12577740  0.72080900  1
  O  O3379  1  0.12858300  0.12577740  0.92080900  1
  O  O3380  1  0.12858300  0.32577740  0.12080900  1
  O  O3381  1  0.12858300  0.32577740  0.32080900  1
  O  O3382  1  0.12858300  0.32577740  0.52080900  1
  O  O3383  1  0.12858300  0.32577740  0.72080900  1
  O  O3384  1  0.12858300  0.32577740  0.92080900  1
  O  O3385  1  0.12858300  0.52577740  0.12080900  1
  O  O3386  1  0.12858300  0.52577740  0.32080900  1
  O  O3387  1  0.12858300  0.52577740  0.52080900  1
  O  O3388  1  0.12858300  0.52577740  0.72080900  1
  O  O3389  1  0.12858300  0.52577740  0.92080900  1
  O  O3390  1  0.12858300  0.72577740  0.12080900  1
  O  O3391  1  0.12858300  0.72577740  0.32080900  1
  O  O3392  1  0.12858300  0.72577740  0.52080900  1
  O  O3393  1  0.12858300  0.72577740  0.72080900  1
  O  O3394  1  0.12858300  0.72577740  0.92080900  1
  O  O3395  1  0.12858300  0.92577740  0.12080900  1
  O  O3396  1  0.12858300  0.92577740  0.32080900  1
  O  O3397  1  0.12858300  0.92577740  0.52080900  1
  O  O3398  1  0.12858300  0.92577740  0.72080900  1
  O  O3399  1  0.12858300  0.92577740  0.92080900  1
  O  O3400  1  0.32858300  0.12577740  0.12080900  1
  O  O3401  1  0.32858300  0.12577740  0.32080900  1
  O  O3402  1  0.32858300  0.12577740  0.52080900  1
  O  O3403  1  0.32858300  0.12577740  0.72080900  1
  O  O3404  1  0.32858300  0.12577740  0.92080900  1
  O  O3405  1  0.32858300  0.32577740  0.12080900  1
  O  O3406  1  0.32858300  0.32577740  0.32080900  1
  O  O3407  1  0.32858300  0.32577740  0.52080900  1
  O  O3408  1  0.32858300  0.32577740  0.72080900  1
  O  O3409  1  0.32858300  0.32577740  0.92080900  1
  O  O3410  1  0.32858300  0.52577740  0.12080900  1
  O  O3411  1  0.32858300  0.52577740  0.32080900  1
  O  O3412  1  0.32858300  0.52577740  0.52080900  1
  O  O3413  1  0.32858300  0.52577740  0.72080900  1
  O  O3414  1  0.32858300  0.52577740  0.92080900  1
  O  O3415  1  0.32858300  0.72577740  0.12080900  1
  O  O3416  1  0.32858300  0.72577740  0.32080900  1
  O  O3417  1  0.32858300  0.72577740  0.52080900  1
  O  O3418  1  0.32858300  0.72577740  0.72080900  1
  O  O3419  1  0.32858300  0.72577740  0.92080900  1
  O  O3420  1  0.32858300  0.92577740  0.12080900  1
  O  O3421  1  0.32858300  0.92577740  0.32080900  1
  O  O3422  1  0.32858300  0.92577740  0.52080900  1
  O  O3423  1  0.32858300  0.92577740  0.72080900  1
  O  O3424  1  0.32858300  0.92577740  0.92080900  1
  O  O3425  1  0.52858300  0.12577740  0.12080900  1
  O  O3426  1  0.52858300  0.12577740  0.32080900  1
  O  O3427  1  0.52858300  0.12577740  0.52080900  1
  O  O3428  1  0.52858300  0.12577740  0.72080900  1
  O  O3429  1  0.52858300  0.12577740  0.92080900  1
  O  O3430  1  0.52858300  0.32577740  0.12080900  1
  O  O3431  1  0.52858300  0.32577740  0.32080900  1
  O  O3432  1  0.52858300  0.32577740  0.52080900  1
  O  O3433  1  0.52858300  0.32577740  0.72080900  1
  O  O3434  1  0.52858300  0.32577740  0.92080900  1
  O  O3435  1  0.52858300  0.52577740  0.12080900  1
  O  O3436  1  0.52858300  0.52577740  0.32080900  1
  O  O3437  1  0.52858300  0.52577740  0.52080900  1
  O  O3438  1  0.52858300  0.52577740  0.72080900  1
  O  O3439  1  0.52858300  0.52577740  0.92080900  1
  O  O3440  1  0.52858300  0.72577740  0.12080900  1
  O  O3441  1  0.52858300  0.72577740  0.32080900  1
  O  O3442  1  0.52858300  0.72577740  0.52080900  1
  O  O3443  1  0.52858300  0.72577740  0.72080900  1
  O  O3444  1  0.52858300  0.72577740  0.92080900  1
  O  O3445  1  0.52858300  0.92577740  0.12080900  1
  O  O3446  1  0.52858300  0.92577740  0.32080900  1
  O  O3447  1  0.52858300  0.92577740  0.52080900  1
  O  O3448  1  0.52858300  0.92577740  0.72080900  1
  O  O3449  1  0.52858300  0.92577740  0.92080900  1
  O  O3450  1  0.72858300  0.12577740  0.12080900  1
  O  O3451  1  0.72858300  0.12577740  0.32080900  1
  O  O3452  1  0.72858300  0.12577740  0.52080900  1
  O  O3453  1  0.72858300  0.12577740  0.72080900  1
  O  O3454  1  0.72858300  0.12577740  0.92080900  1
  O  O3455  1  0.72858300  0.32577740  0.12080900  1
  O  O3456  1  0.72858300  0.32577740  0.32080900  1
  O  O3457  1  0.72858300  0.32577740  0.52080900  1
  O  O3458  1  0.72858300  0.32577740  0.72080900  1
  O  O3459  1  0.72858300  0.32577740  0.92080900  1
  O  O3460  1  0.72858300  0.52577740  0.12080900  1
  O  O3461  1  0.72858300  0.52577740  0.32080900  1
  O  O3462  1  0.72858300  0.52577740  0.52080900  1
  O  O3463  1  0.72858300  0.52577740  0.72080900  1
  O  O3464  1  0.72858300  0.52577740  0.92080900  1
  O  O3465  1  0.72858300  0.72577740  0.12080900  1
  O  O3466  1  0.72858300  0.72577740  0.32080900  1
  O  O3467  1  0.72858300  0.72577740  0.52080900  1
  O  O3468  1  0.72858300  0.72577740  0.72080900  1
  O  O3469  1  0.72858300  0.72577740  0.92080900  1
  O  O3470  1  0.72858300  0.92577740  0.12080900  1
  O  O3471  1  0.72858300  0.92577740  0.32080900  1
  O  O3472  1  0.72858300  0.92577740  0.52080900  1
  O  O3473  1  0.72858300  0.92577740  0.72080900  1
  O  O3474  1  0.72858300  0.92577740  0.92080900  1
  O  O3475  1  0.92858300  0.12577740  0.12080900  1
  O  O3476  1  0.92858300  0.12577740  0.32080900  1
  O  O3477  1  0.92858300  0.12577740  0.52080900  1
  O  O3478  1  0.92858300  0.12577740  0.72080900  1
  O  O3479  1  0.92858300  0.12577740  0.92080900  1
  O  O3480  1  0.92858300  0.32577740  0.12080900  1
  O  O3481  1  0.92858300  0.32577740  0.32080900  1
  O  O3482  1  0.92858300  0.32577740  0.52080900  1
  O  O3483  1  0.92858300  0.32577740  0.72080900  1
  O  O3484  1  0.92858300  0.32577740  0.92080900  1
  O  O3485  1  0.92858300  0.52577740  0.12080900  1
  O  O3486  1  0.92858300  0.52577740  0.32080900  1
  O  O3487  1  0.92858300  0.52577740  0.52080900  1
  O  O3488  1  0.92858300  0.52577740  0.72080900  1
  O  O3489  1  0.92858300  0.52577740  0.92080900  1
  O  O3490  1  0.92858300  0.72577740  0.12080900  1
  O  O3491  1  0.92858300  0.72577740  0.32080900  1
  O  O3492  1  0.92858300  0.72577740  0.52080900  1
  O  O3493  1  0.92858300  0.72577740  0.72080900  1
  O  O3494  1  0.92858300  0.72577740  0.92080900  1
  O  O3495  1  0.92858300  0.92577740  0.12080900  1
  O  O3496  1  0.92858300  0.92577740  0.32080900  1
  O  O3497  1  0.92858300  0.92577740  0.52080900  1
  O  O3498  1  0.92858300  0.92577740  0.72080900  1
  O  O3499  1  0.92858300  0.92577740  0.92080900  1
  O  O3500  1  0.15983160  0.19870120  0.13189140  1
  O  O3501  1  0.15983160  0.19870120  0.33189140  1
  O  O3502  1  0.15983160  0.19870120  0.53189140  1
  O  O3503  1  0.15983160  0.19870120  0.73189140  1
  O  O3504  1  0.15983160  0.19870120  0.93189140  1
  O  O3505  1  0.15983160  0.39870120  0.13189140  1
  O  O3506  1  0.15983160  0.39870120  0.33189140  1
  O  O3507  1  0.15983160  0.39870120  0.53189140  1
  O  O3508  1  0.15983160  0.39870120  0.73189140  1
  O  O3509  1  0.15983160  0.39870120  0.93189140  1
  O  O3510  1  0.15983160  0.59870120  0.13189140  1
  O  O3511  1  0.15983160  0.59870120  0.33189140  1
  O  O3512  1  0.15983160  0.59870120  0.53189140  1
  O  O3513  1  0.15983160  0.59870120  0.73189140  1
  O  O3514  1  0.15983160  0.59870120  0.93189140  1
  O  O3515  1  0.15983160  0.79870120  0.13189140  1
  O  O3516  1  0.15983160  0.79870120  0.33189140  1
  O  O3517  1  0.15983160  0.79870120  0.53189140  1
  O  O3518  1  0.15983160  0.79870120  0.73189140  1
  O  O3519  1  0.15983160  0.79870120  0.93189140  1
  O  O3520  1  0.15983160  0.99870120  0.13189140  1
  O  O3521  1  0.15983160  0.99870120  0.33189140  1
  O  O3522  1  0.15983160  0.99870120  0.53189140  1
  O  O3523  1  0.15983160  0.99870120  0.73189140  1
  O  O3524  1  0.15983160  0.99870120  0.93189140  1
  O  O3525  1  0.35983160  0.19870120  0.13189140  1
  O  O3526  1  0.35983160  0.19870120  0.33189140  1
  O  O3527  1  0.35983160  0.19870120  0.53189140  1
  O  O3528  1  0.35983160  0.19870120  0.73189140  1
  O  O3529  1  0.35983160  0.19870120  0.93189140  1
  O  O3530  1  0.35983160  0.39870120  0.13189140  1
  O  O3531  1  0.35983160  0.39870120  0.33189140  1
  O  O3532  1  0.35983160  0.39870120  0.53189140  1
  O  O3533  1  0.35983160  0.39870120  0.73189140  1
  O  O3534  1  0.35983160  0.39870120  0.93189140  1
  O  O3535  1  0.35983160  0.59870120  0.13189140  1
  O  O3536  1  0.35983160  0.59870120  0.33189140  1
  O  O3537  1  0.35983160  0.59870120  0.53189140  1
  O  O3538  1  0.35983160  0.59870120  0.73189140  1
  O  O3539  1  0.35983160  0.59870120  0.93189140  1
  O  O3540  1  0.35983160  0.79870120  0.13189140  1
  O  O3541  1  0.35983160  0.79870120  0.33189140  1
  O  O3542  1  0.35983160  0.79870120  0.53189140  1
  O  O3543  1  0.35983160  0.79870120  0.73189140  1
  O  O3544  1  0.35983160  0.79870120  0.93189140  1
  O  O3545  1  0.35983160  0.99870120  0.13189140  1
  O  O3546  1  0.35983160  0.99870120  0.33189140  1
  O  O3547  1  0.35983160  0.99870120  0.53189140  1
  O  O3548  1  0.35983160  0.99870120  0.73189140  1
  O  O3549  1  0.35983160  0.99870120  0.93189140  1
  O  O3550  1  0.55983160  0.19870120  0.13189140  1
  O  O3551  1  0.55983160  0.19870120  0.33189140  1
  O  O3552  1  0.55983160  0.19870120  0.53189140  1
  O  O3553  1  0.55983160  0.19870120  0.73189140  1
  O  O3554  1  0.55983160  0.19870120  0.93189140  1
  O  O3555  1  0.55983160  0.39870120  0.13189140  1
  O  O3556  1  0.55983160  0.39870120  0.33189140  1
  O  O3557  1  0.55983160  0.39870120  0.53189140  1
  O  O3558  1  0.55983160  0.39870120  0.73189140  1
  O  O3559  1  0.55983160  0.39870120  0.93189140  1
  O  O3560  1  0.55983160  0.59870120  0.13189140  1
  O  O3561  1  0.55983160  0.59870120  0.33189140  1
  O  O3562  1  0.55983160  0.59870120  0.53189140  1
  O  O3563  1  0.55983160  0.59870120  0.73189140  1
  O  O3564  1  0.55983160  0.59870120  0.93189140  1
  O  O3565  1  0.55983160  0.79870120  0.13189140  1
  O  O3566  1  0.55983160  0.79870120  0.33189140  1
  O  O3567  1  0.55983160  0.79870120  0.53189140  1
  O  O3568  1  0.55983160  0.79870120  0.73189140  1
  O  O3569  1  0.55983160  0.79870120  0.93189140  1
  O  O3570  1  0.55983160  0.99870120  0.13189140  1
  O  O3571  1  0.55983160  0.99870120  0.33189140  1
  O  O3572  1  0.55983160  0.99870120  0.53189140  1
  O  O3573  1  0.55983160  0.99870120  0.73189140  1
  O  O3574  1  0.55983160  0.99870120  0.93189140  1
  O  O3575  1  0.75983160  0.19870120  0.13189140  1
  O  O3576  1  0.75983160  0.19870120  0.33189140  1
  O  O3577  1  0.75983160  0.19870120  0.53189140  1
  O  O3578  1  0.75983160  0.19870120  0.73189140  1
  O  O3579  1  0.75983160  0.19870120  0.93189140  1
  O  O3580  1  0.75983160  0.39870120  0.13189140  1
  O  O3581  1  0.75983160  0.39870120  0.33189140  1
  O  O3582  1  0.75983160  0.39870120  0.53189140  1
  O  O3583  1  0.75983160  0.39870120  0.73189140  1
  O  O3584  1  0.75983160  0.39870120  0.93189140  1
  O  O3585  1  0.75983160  0.59870120  0.13189140  1
  O  O3586  1  0.75983160  0.59870120  0.33189140  1
  O  O3587  1  0.75983160  0.59870120  0.53189140  1
  O  O3588  1  0.75983160  0.59870120  0.73189140  1
  O  O3589  1  0.75983160  0.59870120  0.93189140  1
  O  O3590  1  0.75983160  0.79870120  0.13189140  1
  O  O3591  1  0.75983160  0.79870120  0.33189140  1
  O  O3592  1  0.75983160  0.79870120  0.53189140  1
  O  O3593  1  0.75983160  0.79870120  0.73189140  1
  O  O3594  1  0.75983160  0.79870120  0.93189140  1
  O  O3595  1  0.75983160  0.99870120  0.13189140  1
  O  O3596  1  0.75983160  0.99870120  0.33189140  1
  O  O3597  1  0.75983160  0.99870120  0.53189140  1
  O  O3598  1  0.75983160  0.99870120  0.73189140  1
  O  O3599  1  0.75983160  0.99870120  0.93189140  1
  O  O3600  1  0.95983160  0.19870120  0.13189140  1
  O  O3601  1  0.95983160  0.19870120  0.33189140  1
  O  O3602  1  0.95983160  0.19870120  0.53189140  1
  O  O3603  1  0.95983160  0.19870120  0.73189140  1
  O  O3604  1  0.95983160  0.19870120  0.93189140  1
  O  O3605  1  0.95983160  0.39870120  0.13189140  1
  O  O3606  1  0.95983160  0.39870120  0.33189140  1
  O  O3607  1  0.95983160  0.39870120  0.53189140  1
  O  O3608  1  0.95983160  0.39870120  0.73189140  1
  O  O3609  1  0.95983160  0.39870120  0.93189140  1
  O  O3610  1  0.95983160  0.59870120  0.13189140  1
  O  O3611  1  0.95983160  0.59870120  0.33189140  1
  O  O3612  1  0.95983160  0.59870120  0.53189140  1
  O  O3613  1  0.95983160  0.59870120  0.73189140  1
  O  O3614  1  0.95983160  0.59870120  0.93189140  1
  O  O3615  1  0.95983160  0.79870120  0.13189140  1
  O  O3616  1  0.95983160  0.79870120  0.33189140  1
  O  O3617  1  0.95983160  0.79870120  0.53189140  1
  O  O3618  1  0.95983160  0.79870120  0.73189140  1
  O  O3619  1  0.95983160  0.79870120  0.93189140  1
  O  O3620  1  0.95983160  0.99870120  0.13189140  1
  O  O3621  1  0.95983160  0.99870120  0.33189140  1
  O  O3622  1  0.95983160  0.99870120  0.53189140  1
  O  O3623  1  0.95983160  0.99870120  0.73189140  1
  O  O3624  1  0.95983160  0.99870120  0.93189140  1
  O  O3625  1  0.09804580  0.09568200  0.16932160  1
  O  O3626  1  0.09804580  0.09568200  0.36932160  1
  O  O3627  1  0.09804580  0.09568200  0.56932160  1
  O  O3628  1  0.09804580  0.09568200  0.76932160  1
  O  O3629  1  0.09804580  0.09568200  0.96932160  1
  O  O3630  1  0.09804580  0.29568200  0.16932160  1
  O  O3631  1  0.09804580  0.29568200  0.36932160  1
  O  O3632  1  0.09804580  0.29568200  0.56932160  1
  O  O3633  1  0.09804580  0.29568200  0.76932160  1
  O  O3634  1  0.09804580  0.29568200  0.96932160  1
  O  O3635  1  0.09804580  0.49568200  0.16932160  1
  O  O3636  1  0.09804580  0.49568200  0.36932160  1
  O  O3637  1  0.09804580  0.49568200  0.56932160  1
  O  O3638  1  0.09804580  0.49568200  0.76932160  1
  O  O3639  1  0.09804580  0.49568200  0.96932160  1
  O  O3640  1  0.09804580  0.69568200  0.16932160  1
  O  O3641  1  0.09804580  0.69568200  0.36932160  1
  O  O3642  1  0.09804580  0.69568200  0.56932160  1
  O  O3643  1  0.09804580  0.69568200  0.76932160  1
  O  O3644  1  0.09804580  0.69568200  0.96932160  1
  O  O3645  1  0.09804580  0.89568200  0.16932160  1
  O  O3646  1  0.09804580  0.89568200  0.36932160  1
  O  O3647  1  0.09804580  0.89568200  0.56932160  1
  O  O3648  1  0.09804580  0.89568200  0.76932160  1
  O  O3649  1  0.09804580  0.89568200  0.96932160  1
  O  O3650  1  0.29804580  0.09568200  0.16932160  1
  O  O3651  1  0.29804580  0.09568200  0.36932160  1
  O  O3652  1  0.29804580  0.09568200  0.56932160  1
  O  O3653  1  0.29804580  0.09568200  0.76932160  1
  O  O3654  1  0.29804580  0.09568200  0.96932160  1
  O  O3655  1  0.29804580  0.29568200  0.16932160  1
  O  O3656  1  0.29804580  0.29568200  0.36932160  1
  O  O3657  1  0.29804580  0.29568200  0.56932160  1
  O  O3658  1  0.29804580  0.29568200  0.76932160  1
  O  O3659  1  0.29804580  0.29568200  0.96932160  1
  O  O3660  1  0.29804580  0.49568200  0.16932160  1
  O  O3661  1  0.29804580  0.49568200  0.36932160  1
  O  O3662  1  0.29804580  0.49568200  0.56932160  1
  O  O3663  1  0.29804580  0.49568200  0.76932160  1
  O  O3664  1  0.29804580  0.49568200  0.96932160  1
  O  O3665  1  0.29804580  0.69568200  0.16932160  1
  O  O3666  1  0.29804580  0.69568200  0.36932160  1
  O  O3667  1  0.29804580  0.69568200  0.56932160  1
  O  O3668  1  0.29804580  0.69568200  0.76932160  1
  O  O3669  1  0.29804580  0.69568200  0.96932160  1
  O  O3670  1  0.29804580  0.89568200  0.16932160  1
  O  O3671  1  0.29804580  0.89568200  0.36932160  1
  O  O3672  1  0.29804580  0.89568200  0.56932160  1
  O  O3673  1  0.29804580  0.89568200  0.76932160  1
  O  O3674  1  0.29804580  0.89568200  0.96932160  1
  O  O3675  1  0.49804580  0.09568200  0.16932160  1
  O  O3676  1  0.49804580  0.09568200  0.36932160  1
  O  O3677  1  0.49804580  0.09568200  0.56932160  1
  O  O3678  1  0.49804580  0.09568200  0.76932160  1
  O  O3679  1  0.49804580  0.09568200  0.96932160  1
  O  O3680  1  0.49804580  0.29568200  0.16932160  1
  O  O3681  1  0.49804580  0.29568200  0.36932160  1
  O  O3682  1  0.49804580  0.29568200  0.56932160  1
  O  O3683  1  0.49804580  0.29568200  0.76932160  1
  O  O3684  1  0.49804580  0.29568200  0.96932160  1
  O  O3685  1  0.49804580  0.49568200  0.16932160  1
  O  O3686  1  0.49804580  0.49568200  0.36932160  1
  O  O3687  1  0.49804580  0.49568200  0.56932160  1
  O  O3688  1  0.49804580  0.49568200  0.76932160  1
  O  O3689  1  0.49804580  0.49568200  0.96932160  1
  O  O3690  1  0.49804580  0.69568200  0.16932160  1
  O  O3691  1  0.49804580  0.69568200  0.36932160  1
  O  O3692  1  0.49804580  0.69568200  0.56932160  1
  O  O3693  1  0.49804580  0.69568200  0.76932160  1
  O  O3694  1  0.49804580  0.69568200  0.96932160  1
  O  O3695  1  0.49804580  0.89568200  0.16932160  1
  O  O3696  1  0.49804580  0.89568200  0.36932160  1
  O  O3697  1  0.49804580  0.89568200  0.56932160  1
  O  O3698  1  0.49804580  0.89568200  0.76932160  1
  O  O3699  1  0.49804580  0.89568200  0.96932160  1
  O  O3700  1  0.69804580  0.09568200  0.16932160  1
  O  O3701  1  0.69804580  0.09568200  0.36932160  1
  O  O3702  1  0.69804580  0.09568200  0.56932160  1
  O  O3703  1  0.69804580  0.09568200  0.76932160  1
  O  O3704  1  0.69804580  0.09568200  0.96932160  1
  O  O3705  1  0.69804580  0.29568200  0.16932160  1
  O  O3706  1  0.69804580  0.29568200  0.36932160  1
  O  O3707  1  0.69804580  0.29568200  0.56932160  1
  O  O3708  1  0.69804580  0.29568200  0.76932160  1
  O  O3709  1  0.69804580  0.29568200  0.96932160  1
  O  O3710  1  0.69804580  0.49568200  0.16932160  1
  O  O3711  1  0.69804580  0.49568200  0.36932160  1
  O  O3712  1  0.69804580  0.49568200  0.56932160  1
  O  O3713  1  0.69804580  0.49568200  0.76932160  1
  O  O3714  1  0.69804580  0.49568200  0.96932160  1
  O  O3715  1  0.69804580  0.69568200  0.16932160  1
  O  O3716  1  0.69804580  0.69568200  0.36932160  1
  O  O3717  1  0.69804580  0.69568200  0.56932160  1
  O  O3718  1  0.69804580  0.69568200  0.76932160  1
  O  O3719  1  0.69804580  0.69568200  0.96932160  1
  O  O3720  1  0.69804580  0.89568200  0.16932160  1
  O  O3721  1  0.69804580  0.89568200  0.36932160  1
  O  O3722  1  0.69804580  0.89568200  0.56932160  1
  O  O3723  1  0.69804580  0.89568200  0.76932160  1
  O  O3724  1  0.69804580  0.89568200  0.96932160  1
  O  O3725  1  0.89804580  0.09568200  0.16932160  1
  O  O3726  1  0.89804580  0.09568200  0.36932160  1
  O  O3727  1  0.89804580  0.09568200  0.56932160  1
  O  O3728  1  0.89804580  0.09568200  0.76932160  1
  O  O3729  1  0.89804580  0.09568200  0.96932160  1
  O  O3730  1  0.89804580  0.29568200  0.16932160  1
  O  O3731  1  0.89804580  0.29568200  0.36932160  1
  O  O3732  1  0.89804580  0.29568200  0.56932160  1
  O  O3733  1  0.89804580  0.29568200  0.76932160  1
  O  O3734  1  0.89804580  0.29568200  0.96932160  1
  O  O3735  1  0.89804580  0.49568200  0.16932160  1
  O  O3736  1  0.89804580  0.49568200  0.36932160  1
  O  O3737  1  0.89804580  0.49568200  0.56932160  1
  O  O3738  1  0.89804580  0.49568200  0.76932160  1
  O  O3739  1  0.89804580  0.49568200  0.96932160  1
  O  O3740  1  0.89804580  0.69568200  0.16932160  1
  O  O3741  1  0.89804580  0.69568200  0.36932160  1
  O  O3742  1  0.89804580  0.69568200  0.56932160  1
  O  O3743  1  0.89804580  0.69568200  0.76932160  1
  O  O3744  1  0.89804580  0.69568200  0.96932160  1
  O  O3745  1  0.89804580  0.89568200  0.16932160  1
  O  O3746  1  0.89804580  0.89568200  0.36932160  1
  O  O3747  1  0.89804580  0.89568200  0.56932160  1
  O  O3748  1  0.89804580  0.89568200  0.76932160  1
  O  O3749  1  0.89804580  0.89568200  0.96932160  1
  O  O3750  1  0.10195420  0.10431800  0.03067840  1
  O  O3751  1  0.10195420  0.10431800  0.23067840  1
  O  O3752  1  0.10195420  0.10431800  0.43067840  1
  O  O3753  1  0.10195420  0.10431800  0.63067840  1
  O  O3754  1  0.10195420  0.10431800  0.83067840  1
  O  O3755  1  0.10195420  0.30431800  0.03067840  1
  O  O3756  1  0.10195420  0.30431800  0.23067840  1
  O  O3757  1  0.10195420  0.30431800  0.43067840  1
  O  O3758  1  0.10195420  0.30431800  0.63067840  1
  O  O3759  1  0.10195420  0.30431800  0.83067840  1
  O  O3760  1  0.10195420  0.50431800  0.03067840  1
  O  O3761  1  0.10195420  0.50431800  0.23067840  1
  O  O3762  1  0.10195420  0.50431800  0.43067840  1
  O  O3763  1  0.10195420  0.50431800  0.63067840  1
  O  O3764  1  0.10195420  0.50431800  0.83067840  1
  O  O3765  1  0.10195420  0.70431800  0.03067840  1
  O  O3766  1  0.10195420  0.70431800  0.23067840  1
  O  O3767  1  0.10195420  0.70431800  0.43067840  1
  O  O3768  1  0.10195420  0.70431800  0.63067840  1
  O  O3769  1  0.10195420  0.70431800  0.83067840  1
  O  O3770  1  0.10195420  0.90431800  0.03067840  1
  O  O3771  1  0.10195420  0.90431800  0.23067840  1
  O  O3772  1  0.10195420  0.90431800  0.43067840  1
  O  O3773  1  0.10195420  0.90431800  0.63067840  1
  O  O3774  1  0.10195420  0.90431800  0.83067840  1
  O  O3775  1  0.30195420  0.10431800  0.03067840  1
  O  O3776  1  0.30195420  0.10431800  0.23067840  1
  O  O3777  1  0.30195420  0.10431800  0.43067840  1
  O  O3778  1  0.30195420  0.10431800  0.63067840  1
  O  O3779  1  0.30195420  0.10431800  0.83067840  1
  O  O3780  1  0.30195420  0.30431800  0.03067840  1
  O  O3781  1  0.30195420  0.30431800  0.23067840  1
  O  O3782  1  0.30195420  0.30431800  0.43067840  1
  O  O3783  1  0.30195420  0.30431800  0.63067840  1
  O  O3784  1  0.30195420  0.30431800  0.83067840  1
  O  O3785  1  0.30195420  0.50431800  0.03067840  1
  O  O3786  1  0.30195420  0.50431800  0.23067840  1
  O  O3787  1  0.30195420  0.50431800  0.43067840  1
  O  O3788  1  0.30195420  0.50431800  0.63067840  1
  O  O3789  1  0.30195420  0.50431800  0.83067840  1
  O  O3790  1  0.30195420  0.70431800  0.03067840  1
  O  O3791  1  0.30195420  0.70431800  0.23067840  1
  O  O3792  1  0.30195420  0.70431800  0.43067840  1
  O  O3793  1  0.30195420  0.70431800  0.63067840  1
  O  O3794  1  0.30195420  0.70431800  0.83067840  1
  O  O3795  1  0.30195420  0.90431800  0.03067840  1
  O  O3796  1  0.30195420  0.90431800  0.23067840  1
  O  O3797  1  0.30195420  0.90431800  0.43067840  1
  O  O3798  1  0.30195420  0.90431800  0.63067840  1
  O  O3799  1  0.30195420  0.90431800  0.83067840  1
  O  O3800  1  0.50195420  0.10431800  0.03067840  1
  O  O3801  1  0.50195420  0.10431800  0.23067840  1
  O  O3802  1  0.50195420  0.10431800  0.43067840  1
  O  O3803  1  0.50195420  0.10431800  0.63067840  1
  O  O3804  1  0.50195420  0.10431800  0.83067840  1
  O  O3805  1  0.50195420  0.30431800  0.03067840  1
  O  O3806  1  0.50195420  0.30431800  0.23067840  1
  O  O3807  1  0.50195420  0.30431800  0.43067840  1
  O  O3808  1  0.50195420  0.30431800  0.63067840  1
  O  O3809  1  0.50195420  0.30431800  0.83067840  1
  O  O3810  1  0.50195420  0.50431800  0.03067840  1
  O  O3811  1  0.50195420  0.50431800  0.23067840  1
  O  O3812  1  0.50195420  0.50431800  0.43067840  1
  O  O3813  1  0.50195420  0.50431800  0.63067840  1
  O  O3814  1  0.50195420  0.50431800  0.83067840  1
  O  O3815  1  0.50195420  0.70431800  0.03067840  1
  O  O3816  1  0.50195420  0.70431800  0.23067840  1
  O  O3817  1  0.50195420  0.70431800  0.43067840  1
  O  O3818  1  0.50195420  0.70431800  0.63067840  1
  O  O3819  1  0.50195420  0.70431800  0.83067840  1
  O  O3820  1  0.50195420  0.90431800  0.03067840  1
  O  O3821  1  0.50195420  0.90431800  0.23067840  1
  O  O3822  1  0.50195420  0.90431800  0.43067840  1
  O  O3823  1  0.50195420  0.90431800  0.63067840  1
  O  O3824  1  0.50195420  0.90431800  0.83067840  1
  O  O3825  1  0.70195420  0.10431800  0.03067840  1
  O  O3826  1  0.70195420  0.10431800  0.23067840  1
  O  O3827  1  0.70195420  0.10431800  0.43067840  1
  O  O3828  1  0.70195420  0.10431800  0.63067840  1
  O  O3829  1  0.70195420  0.10431800  0.83067840  1
  O  O3830  1  0.70195420  0.30431800  0.03067840  1
  O  O3831  1  0.70195420  0.30431800  0.23067840  1
  O  O3832  1  0.70195420  0.30431800  0.43067840  1
  O  O3833  1  0.70195420  0.30431800  0.63067840  1
  O  O3834  1  0.70195420  0.30431800  0.83067840  1
  O  O3835  1  0.70195420  0.50431800  0.03067840  1
  O  O3836  1  0.70195420  0.50431800  0.23067840  1
  O  O3837  1  0.70195420  0.50431800  0.43067840  1
  O  O3838  1  0.70195420  0.50431800  0.63067840  1
  O  O3839  1  0.70195420  0.50431800  0.83067840  1
  O  O3840  1  0.70195420  0.70431800  0.03067840  1
  O  O3841  1  0.70195420  0.70431800  0.23067840  1
  O  O3842  1  0.70195420  0.70431800  0.43067840  1
  O  O3843  1  0.70195420  0.70431800  0.63067840  1
  O  O3844  1  0.70195420  0.70431800  0.83067840  1
  O  O3845  1  0.70195420  0.90431800  0.03067840  1
  O  O3846  1  0.70195420  0.90431800  0.23067840  1
  O  O3847  1  0.70195420  0.90431800  0.43067840  1
  O  O3848  1  0.70195420  0.90431800  0.63067840  1
  O  O3849  1  0.70195420  0.90431800  0.83067840  1
  O  O3850  1  0.90195420  0.10431800  0.03067840  1
  O  O3851  1  0.90195420  0.10431800  0.23067840  1
  O  O3852  1  0.90195420  0.10431800  0.43067840  1
  O  O3853  1  0.90195420  0.10431800  0.63067840  1
  O  O3854  1  0.90195420  0.10431800  0.83067840  1
  O  O3855  1  0.90195420  0.30431800  0.03067840  1
  O  O3856  1  0.90195420  0.30431800  0.23067840  1
  O  O3857  1  0.90195420  0.30431800  0.43067840  1
  O  O3858  1  0.90195420  0.30431800  0.63067840  1
  O  O3859  1  0.90195420  0.30431800  0.83067840  1
  O  O3860  1  0.90195420  0.50431800  0.03067840  1
  O  O3861  1  0.90195420  0.50431800  0.23067840  1
  O  O3862  1  0.90195420  0.50431800  0.43067840  1
  O  O3863  1  0.90195420  0.50431800  0.63067840  1
  O  O3864  1  0.90195420  0.50431800  0.83067840  1
  O  O3865  1  0.90195420  0.70431800  0.03067840  1
  O  O3866  1  0.90195420  0.70431800  0.23067840  1
  O  O3867  1  0.90195420  0.70431800  0.43067840  1
  O  O3868  1  0.90195420  0.70431800  0.63067840  1
  O  O3869  1  0.90195420  0.70431800  0.83067840  1
  O  O3870  1  0.90195420  0.90431800  0.03067840  1
  O  O3871  1  0.90195420  0.90431800  0.23067840  1
  O  O3872  1  0.90195420  0.90431800  0.43067840  1
  O  O3873  1  0.90195420  0.90431800  0.63067840  1
  O  O3874  1  0.90195420  0.90431800  0.83067840  1
  O  O3875  1  0.04016840  0.00129880  0.06810860  1
  O  O3876  1  0.04016840  0.00129880  0.26810860  1
  O  O3877  1  0.04016840  0.00129880  0.46810860  1
  O  O3878  1  0.04016840  0.00129880  0.66810860  1
  O  O3879  1  0.04016840  0.00129880  0.86810860  1
  O  O3880  1  0.04016840  0.20129880  0.06810860  1
  O  O3881  1  0.04016840  0.20129880  0.26810860  1
  O  O3882  1  0.04016840  0.20129880  0.46810860  1
  O  O3883  1  0.04016840  0.20129880  0.66810860  1
  O  O3884  1  0.04016840  0.20129880  0.86810860  1
  O  O3885  1  0.04016840  0.40129880  0.06810860  1
  O  O3886  1  0.04016840  0.40129880  0.26810860  1
  O  O3887  1  0.04016840  0.40129880  0.46810860  1
  O  O3888  1  0.04016840  0.40129880  0.66810860  1
  O  O3889  1  0.04016840  0.40129880  0.86810860  1
  O  O3890  1  0.04016840  0.60129880  0.06810860  1
  O  O3891  1  0.04016840  0.60129880  0.26810860  1
  O  O3892  1  0.04016840  0.60129880  0.46810860  1
  O  O3893  1  0.04016840  0.60129880  0.66810860  1
  O  O3894  1  0.04016840  0.60129880  0.86810860  1
  O  O3895  1  0.04016840  0.80129880  0.06810860  1
  O  O3896  1  0.04016840  0.80129880  0.26810860  1
  O  O3897  1  0.04016840  0.80129880  0.46810860  1
  O  O3898  1  0.04016840  0.80129880  0.66810860  1
  O  O3899  1  0.04016840  0.80129880  0.86810860  1
  O  O3900  1  0.24016840  0.00129880  0.06810860  1
  O  O3901  1  0.24016840  0.00129880  0.26810860  1
  O  O3902  1  0.24016840  0.00129880  0.46810860  1
  O  O3903  1  0.24016840  0.00129880  0.66810860  1
  O  O3904  1  0.24016840  0.00129880  0.86810860  1
  O  O3905  1  0.24016840  0.20129880  0.06810860  1
  O  O3906  1  0.24016840  0.20129880  0.26810860  1
  O  O3907  1  0.24016840  0.20129880  0.46810860  1
  O  O3908  1  0.24016840  0.20129880  0.66810860  1
  O  O3909  1  0.24016840  0.20129880  0.86810860  1
  O  O3910  1  0.24016840  0.40129880  0.06810860  1
  O  O3911  1  0.24016840  0.40129880  0.26810860  1
  O  O3912  1  0.24016840  0.40129880  0.46810860  1
  O  O3913  1  0.24016840  0.40129880  0.66810860  1
  O  O3914  1  0.24016840  0.40129880  0.86810860  1
  O  O3915  1  0.24016840  0.60129880  0.06810860  1
  O  O3916  1  0.24016840  0.60129880  0.26810860  1
  O  O3917  1  0.24016840  0.60129880  0.46810860  1
  O  O3918  1  0.24016840  0.60129880  0.66810860  1
  O  O3919  1  0.24016840  0.60129880  0.86810860  1
  O  O3920  1  0.24016840  0.80129880  0.06810860  1
  O  O3921  1  0.24016840  0.80129880  0.26810860  1
  O  O3922  1  0.24016840  0.80129880  0.46810860  1
  O  O3923  1  0.24016840  0.80129880  0.66810860  1
  O  O3924  1  0.24016840  0.80129880  0.86810860  1
  O  O3925  1  0.44016840  0.00129880  0.06810860  1
  O  O3926  1  0.44016840  0.00129880  0.26810860  1
  O  O3927  1  0.44016840  0.00129880  0.46810860  1
  O  O3928  1  0.44016840  0.00129880  0.66810860  1
  O  O3929  1  0.44016840  0.00129880  0.86810860  1
  O  O3930  1  0.44016840  0.20129880  0.06810860  1
  O  O3931  1  0.44016840  0.20129880  0.26810860  1
  O  O3932  1  0.44016840  0.20129880  0.46810860  1
  O  O3933  1  0.44016840  0.20129880  0.66810860  1
  O  O3934  1  0.44016840  0.20129880  0.86810860  1
  O  O3935  1  0.44016840  0.40129880  0.06810860  1
  O  O3936  1  0.44016840  0.40129880  0.26810860  1
  O  O3937  1  0.44016840  0.40129880  0.46810860  1
  O  O3938  1  0.44016840  0.40129880  0.66810860  1
  O  O3939  1  0.44016840  0.40129880  0.86810860  1
  O  O3940  1  0.44016840  0.60129880  0.06810860  1
  O  O3941  1  0.44016840  0.60129880  0.26810860  1
  O  O3942  1  0.44016840  0.60129880  0.46810860  1
  O  O3943  1  0.44016840  0.60129880  0.66810860  1
  O  O3944  1  0.44016840  0.60129880  0.86810860  1
  O  O3945  1  0.44016840  0.80129880  0.06810860  1
  O  O3946  1  0.44016840  0.80129880  0.26810860  1
  O  O3947  1  0.44016840  0.80129880  0.46810860  1
  O  O3948  1  0.44016840  0.80129880  0.66810860  1
  O  O3949  1  0.44016840  0.80129880  0.86810860  1
  O  O3950  1  0.64016840  0.00129880  0.06810860  1
  O  O3951  1  0.64016840  0.00129880  0.26810860  1
  O  O3952  1  0.64016840  0.00129880  0.46810860  1
  O  O3953  1  0.64016840  0.00129880  0.66810860  1
  O  O3954  1  0.64016840  0.00129880  0.86810860  1
  O  O3955  1  0.64016840  0.20129880  0.06810860  1
  O  O3956  1  0.64016840  0.20129880  0.26810860  1
  O  O3957  1  0.64016840  0.20129880  0.46810860  1
  O  O3958  1  0.64016840  0.20129880  0.66810860  1
  O  O3959  1  0.64016840  0.20129880  0.86810860  1
  O  O3960  1  0.64016840  0.40129880  0.06810860  1
  O  O3961  1  0.64016840  0.40129880  0.26810860  1
  O  O3962  1  0.64016840  0.40129880  0.46810860  1
  O  O3963  1  0.64016840  0.40129880  0.66810860  1
  O  O3964  1  0.64016840  0.40129880  0.86810860  1
  O  O3965  1  0.64016840  0.60129880  0.06810860  1
  O  O3966  1  0.64016840  0.60129880  0.26810860  1
  O  O3967  1  0.64016840  0.60129880  0.46810860  1
  O  O3968  1  0.64016840  0.60129880  0.66810860  1
  O  O3969  1  0.64016840  0.60129880  0.86810860  1
  O  O3970  1  0.64016840  0.80129880  0.06810860  1
  O  O3971  1  0.64016840  0.80129880  0.26810860  1
  O  O3972  1  0.64016840  0.80129880  0.46810860  1
  O  O3973  1  0.64016840  0.80129880  0.66810860  1
  O  O3974  1  0.64016840  0.80129880  0.86810860  1
  O  O3975  1  0.84016840  0.00129880  0.06810860  1
  O  O3976  1  0.84016840  0.00129880  0.26810860  1
  O  O3977  1  0.84016840  0.00129880  0.46810860  1
  O  O3978  1  0.84016840  0.00129880  0.66810860  1
  O  O3979  1  0.84016840  0.00129880  0.86810860  1
  O  O3980  1  0.84016840  0.20129880  0.06810860  1
  O  O3981  1  0.84016840  0.20129880  0.26810860  1
  O  O3982  1  0.84016840  0.20129880  0.46810860  1
  O  O3983  1  0.84016840  0.20129880  0.66810860  1
  O  O3984  1  0.84016840  0.20129880  0.86810860  1
  O  O3985  1  0.84016840  0.40129880  0.06810860  1
  O  O3986  1  0.84016840  0.40129880  0.26810860  1
  O  O3987  1  0.84016840  0.40129880  0.46810860  1
  O  O3988  1  0.84016840  0.40129880  0.66810860  1
  O  O3989  1  0.84016840  0.40129880  0.86810860  1
  O  O3990  1  0.84016840  0.60129880  0.06810860  1
  O  O3991  1  0.84016840  0.60129880  0.26810860  1
  O  O3992  1  0.84016840  0.60129880  0.46810860  1
  O  O3993  1  0.84016840  0.60129880  0.66810860  1
  O  O3994  1  0.84016840  0.60129880  0.86810860  1
  O  O3995  1  0.84016840  0.80129880  0.06810860  1
  O  O3996  1  0.84016840  0.80129880  0.26810860  1
  O  O3997  1  0.84016840  0.80129880  0.46810860  1
  O  O3998  1  0.84016840  0.80129880  0.66810860  1
  O  O3999  1  0.84016840  0.80129880  0.86810860  1
  O  O4000  1  0.07141700  0.07422260  0.07919100  1
  O  O4001  1  0.07141700  0.07422260  0.27919100  1
  O  O4002  1  0.07141700  0.07422260  0.47919100  1
  O  O4003  1  0.07141700  0.07422260  0.67919100  1
  O  O4004  1  0.07141700  0.07422260  0.87919100  1
  O  O4005  1  0.07141700  0.27422260  0.07919100  1
  O  O4006  1  0.07141700  0.27422260  0.27919100  1
  O  O4007  1  0.07141700  0.27422260  0.47919100  1
  O  O4008  1  0.07141700  0.27422260  0.67919100  1
  O  O4009  1  0.07141700  0.27422260  0.87919100  1
  O  O4010  1  0.07141700  0.47422260  0.07919100  1
  O  O4011  1  0.07141700  0.47422260  0.27919100  1
  O  O4012  1  0.07141700  0.47422260  0.47919100  1
  O  O4013  1  0.07141700  0.47422260  0.67919100  1
  O  O4014  1  0.07141700  0.47422260  0.87919100  1
  O  O4015  1  0.07141700  0.67422260  0.07919100  1
  O  O4016  1  0.07141700  0.67422260  0.27919100  1
  O  O4017  1  0.07141700  0.67422260  0.47919100  1
  O  O4018  1  0.07141700  0.67422260  0.67919100  1
  O  O4019  1  0.07141700  0.67422260  0.87919100  1
  O  O4020  1  0.07141700  0.87422260  0.07919100  1
  O  O4021  1  0.07141700  0.87422260  0.27919100  1
  O  O4022  1  0.07141700  0.87422260  0.47919100  1
  O  O4023  1  0.07141700  0.87422260  0.67919100  1
  O  O4024  1  0.07141700  0.87422260  0.87919100  1
  O  O4025  1  0.27141700  0.07422260  0.07919100  1
  O  O4026  1  0.27141700  0.07422260  0.27919100  1
  O  O4027  1  0.27141700  0.07422260  0.47919100  1
  O  O4028  1  0.27141700  0.07422260  0.67919100  1
  O  O4029  1  0.27141700  0.07422260  0.87919100  1
  O  O4030  1  0.27141700  0.27422260  0.07919100  1
  O  O4031  1  0.27141700  0.27422260  0.27919100  1
  O  O4032  1  0.27141700  0.27422260  0.47919100  1
  O  O4033  1  0.27141700  0.27422260  0.67919100  1
  O  O4034  1  0.27141700  0.27422260  0.87919100  1
  O  O4035  1  0.27141700  0.47422260  0.07919100  1
  O  O4036  1  0.27141700  0.47422260  0.27919100  1
  O  O4037  1  0.27141700  0.47422260  0.47919100  1
  O  O4038  1  0.27141700  0.47422260  0.67919100  1
  O  O4039  1  0.27141700  0.47422260  0.87919100  1
  O  O4040  1  0.27141700  0.67422260  0.07919100  1
  O  O4041  1  0.27141700  0.67422260  0.27919100  1
  O  O4042  1  0.27141700  0.67422260  0.47919100  1
  O  O4043  1  0.27141700  0.67422260  0.67919100  1
  O  O4044  1  0.27141700  0.67422260  0.87919100  1
  O  O4045  1  0.27141700  0.87422260  0.07919100  1
  O  O4046  1  0.27141700  0.87422260  0.27919100  1
  O  O4047  1  0.27141700  0.87422260  0.47919100  1
  O  O4048  1  0.27141700  0.87422260  0.67919100  1
  O  O4049  1  0.27141700  0.87422260  0.87919100  1
  O  O4050  1  0.47141700  0.07422260  0.07919100  1
  O  O4051  1  0.47141700  0.07422260  0.27919100  1
  O  O4052  1  0.47141700  0.07422260  0.47919100  1
  O  O4053  1  0.47141700  0.07422260  0.67919100  1
  O  O4054  1  0.47141700  0.07422260  0.87919100  1
  O  O4055  1  0.47141700  0.27422260  0.07919100  1
  O  O4056  1  0.47141700  0.27422260  0.27919100  1
  O  O4057  1  0.47141700  0.27422260  0.47919100  1
  O  O4058  1  0.47141700  0.27422260  0.67919100  1
  O  O4059  1  0.47141700  0.27422260  0.87919100  1
  O  O4060  1  0.47141700  0.47422260  0.07919100  1
  O  O4061  1  0.47141700  0.47422260  0.27919100  1
  O  O4062  1  0.47141700  0.47422260  0.47919100  1
  O  O4063  1  0.47141700  0.47422260  0.67919100  1
  O  O4064  1  0.47141700  0.47422260  0.87919100  1
  O  O4065  1  0.47141700  0.67422260  0.07919100  1
  O  O4066  1  0.47141700  0.67422260  0.27919100  1
  O  O4067  1  0.47141700  0.67422260  0.47919100  1
  O  O4068  1  0.47141700  0.67422260  0.67919100  1
  O  O4069  1  0.47141700  0.67422260  0.87919100  1
  O  O4070  1  0.47141700  0.87422260  0.07919100  1
  O  O4071  1  0.47141700  0.87422260  0.27919100  1
  O  O4072  1  0.47141700  0.87422260  0.47919100  1
  O  O4073  1  0.47141700  0.87422260  0.67919100  1
  O  O4074  1  0.47141700  0.87422260  0.87919100  1
  O  O4075  1  0.67141700  0.07422260  0.07919100  1
  O  O4076  1  0.67141700  0.07422260  0.27919100  1
  O  O4077  1  0.67141700  0.07422260  0.47919100  1
  O  O4078  1  0.67141700  0.07422260  0.67919100  1
  O  O4079  1  0.67141700  0.07422260  0.87919100  1
  O  O4080  1  0.67141700  0.27422260  0.07919100  1
  O  O4081  1  0.67141700  0.27422260  0.27919100  1
  O  O4082  1  0.67141700  0.27422260  0.47919100  1
  O  O4083  1  0.67141700  0.27422260  0.67919100  1
  O  O4084  1  0.67141700  0.27422260  0.87919100  1
  O  O4085  1  0.67141700  0.47422260  0.07919100  1
  O  O4086  1  0.67141700  0.47422260  0.27919100  1
  O  O4087  1  0.67141700  0.47422260  0.47919100  1
  O  O4088  1  0.67141700  0.47422260  0.67919100  1
  O  O4089  1  0.67141700  0.47422260  0.87919100  1
  O  O4090  1  0.67141700  0.67422260  0.07919100  1
  O  O4091  1  0.67141700  0.67422260  0.27919100  1
  O  O4092  1  0.67141700  0.67422260  0.47919100  1
  O  O4093  1  0.67141700  0.67422260  0.67919100  1
  O  O4094  1  0.67141700  0.67422260  0.87919100  1
  O  O4095  1  0.67141700  0.87422260  0.07919100  1
  O  O4096  1  0.67141700  0.87422260  0.27919100  1
  O  O4097  1  0.67141700  0.87422260  0.47919100  1
  O  O4098  1  0.67141700  0.87422260  0.67919100  1
  O  O4099  1  0.67141700  0.87422260  0.87919100  1
  O  O4100  1  0.87141700  0.07422260  0.07919100  1
  O  O4101  1  0.87141700  0.07422260  0.27919100  1
  O  O4102  1  0.87141700  0.07422260  0.47919100  1
  O  O4103  1  0.87141700  0.07422260  0.67919100  1
  O  O4104  1  0.87141700  0.07422260  0.87919100  1
  O  O4105  1  0.87141700  0.27422260  0.07919100  1
  O  O4106  1  0.87141700  0.27422260  0.27919100  1
  O  O4107  1  0.87141700  0.27422260  0.47919100  1
  O  O4108  1  0.87141700  0.27422260  0.67919100  1
  O  O4109  1  0.87141700  0.27422260  0.87919100  1
  O  O4110  1  0.87141700  0.47422260  0.07919100  1
  O  O4111  1  0.87141700  0.47422260  0.27919100  1
  O  O4112  1  0.87141700  0.47422260  0.47919100  1
  O  O4113  1  0.87141700  0.47422260  0.67919100  1
  O  O4114  1  0.87141700  0.47422260  0.87919100  1
  O  O4115  1  0.87141700  0.67422260  0.07919100  1
  O  O4116  1  0.87141700  0.67422260  0.27919100  1
  O  O4117  1  0.87141700  0.67422260  0.47919100  1
  O  O4118  1  0.87141700  0.67422260  0.67919100  1
  O  O4119  1  0.87141700  0.67422260  0.87919100  1
  O  O4120  1  0.87141700  0.87422260  0.07919100  1
  O  O4121  1  0.87141700  0.87422260  0.27919100  1
  O  O4122  1  0.87141700  0.87422260  0.47919100  1
  O  O4123  1  0.87141700  0.87422260  0.67919100  1
  O  O4124  1  0.87141700  0.87422260  0.87919100  1
  O  O4125  1  0.03837880  0.05207780  0.13272820  1
  O  O4126  1  0.03837880  0.05207780  0.33272820  1
  O  O4127  1  0.03837880  0.05207780  0.53272820  1
  O  O4128  1  0.03837880  0.05207780  0.73272820  1
  O  O4129  1  0.03837880  0.05207780  0.93272820  1
  O  O4130  1  0.03837880  0.25207780  0.13272820  1
  O  O4131  1  0.03837880  0.25207780  0.33272820  1
  O  O4132  1  0.03837880  0.25207780  0.53272820  1
  O  O4133  1  0.03837880  0.25207780  0.73272820  1
  O  O4134  1  0.03837880  0.25207780  0.93272820  1
  O  O4135  1  0.03837880  0.45207780  0.13272820  1
  O  O4136  1  0.03837880  0.45207780  0.33272820  1
  O  O4137  1  0.03837880  0.45207780  0.53272820  1
  O  O4138  1  0.03837880  0.45207780  0.73272820  1
  O  O4139  1  0.03837880  0.45207780  0.93272820  1
  O  O4140  1  0.03837880  0.65207780  0.13272820  1
  O  O4141  1  0.03837880  0.65207780  0.33272820  1
  O  O4142  1  0.03837880  0.65207780  0.53272820  1
  O  O4143  1  0.03837880  0.65207780  0.73272820  1
  O  O4144  1  0.03837880  0.65207780  0.93272820  1
  O  O4145  1  0.03837880  0.85207780  0.13272820  1
  O  O4146  1  0.03837880  0.85207780  0.33272820  1
  O  O4147  1  0.03837880  0.85207780  0.53272820  1
  O  O4148  1  0.03837880  0.85207780  0.73272820  1
  O  O4149  1  0.03837880  0.85207780  0.93272820  1
  O  O4150  1  0.23837880  0.05207780  0.13272820  1
  O  O4151  1  0.23837880  0.05207780  0.33272820  1
  O  O4152  1  0.23837880  0.05207780  0.53272820  1
  O  O4153  1  0.23837880  0.05207780  0.73272820  1
  O  O4154  1  0.23837880  0.05207780  0.93272820  1
  O  O4155  1  0.23837880  0.25207780  0.13272820  1
  O  O4156  1  0.23837880  0.25207780  0.33272820  1
  O  O4157  1  0.23837880  0.25207780  0.53272820  1
  O  O4158  1  0.23837880  0.25207780  0.73272820  1
  O  O4159  1  0.23837880  0.25207780  0.93272820  1
  O  O4160  1  0.23837880  0.45207780  0.13272820  1
  O  O4161  1  0.23837880  0.45207780  0.33272820  1
  O  O4162  1  0.23837880  0.45207780  0.53272820  1
  O  O4163  1  0.23837880  0.45207780  0.73272820  1
  O  O4164  1  0.23837880  0.45207780  0.93272820  1
  O  O4165  1  0.23837880  0.65207780  0.13272820  1
  O  O4166  1  0.23837880  0.65207780  0.33272820  1
  O  O4167  1  0.23837880  0.65207780  0.53272820  1
  O  O4168  1  0.23837880  0.65207780  0.73272820  1
  O  O4169  1  0.23837880  0.65207780  0.93272820  1
  O  O4170  1  0.23837880  0.85207780  0.13272820  1
  O  O4171  1  0.23837880  0.85207780  0.33272820  1
  O  O4172  1  0.23837880  0.85207780  0.53272820  1
  O  O4173  1  0.23837880  0.85207780  0.73272820  1
  O  O4174  1  0.23837880  0.85207780  0.93272820  1
  O  O4175  1  0.43837880  0.05207780  0.13272820  1
  O  O4176  1  0.43837880  0.05207780  0.33272820  1
  O  O4177  1  0.43837880  0.05207780  0.53272820  1
  O  O4178  1  0.43837880  0.05207780  0.73272820  1
  O  O4179  1  0.43837880  0.05207780  0.93272820  1
  O  O4180  1  0.43837880  0.25207780  0.13272820  1
  O  O4181  1  0.43837880  0.25207780  0.33272820  1
  O  O4182  1  0.43837880  0.25207780  0.53272820  1
  O  O4183  1  0.43837880  0.25207780  0.73272820  1
  O  O4184  1  0.43837880  0.25207780  0.93272820  1
  O  O4185  1  0.43837880  0.45207780  0.13272820  1
  O  O4186  1  0.43837880  0.45207780  0.33272820  1
  O  O4187  1  0.43837880  0.45207780  0.53272820  1
  O  O4188  1  0.43837880  0.45207780  0.73272820  1
  O  O4189  1  0.43837880  0.45207780  0.93272820  1
  O  O4190  1  0.43837880  0.65207780  0.13272820  1
  O  O4191  1  0.43837880  0.65207780  0.33272820  1
  O  O4192  1  0.43837880  0.65207780  0.53272820  1
  O  O4193  1  0.43837880  0.65207780  0.73272820  1
  O  O4194  1  0.43837880  0.65207780  0.93272820  1
  O  O4195  1  0.43837880  0.85207780  0.13272820  1
  O  O4196  1  0.43837880  0.85207780  0.33272820  1
  O  O4197  1  0.43837880  0.85207780  0.53272820  1
  O  O4198  1  0.43837880  0.85207780  0.73272820  1
  O  O4199  1  0.43837880  0.85207780  0.93272820  1
  O  O4200  1  0.63837880  0.05207780  0.13272820  1
  O  O4201  1  0.63837880  0.05207780  0.33272820  1
  O  O4202  1  0.63837880  0.05207780  0.53272820  1
  O  O4203  1  0.63837880  0.05207780  0.73272820  1
  O  O4204  1  0.63837880  0.05207780  0.93272820  1
  O  O4205  1  0.63837880  0.25207780  0.13272820  1
  O  O4206  1  0.63837880  0.25207780  0.33272820  1
  O  O4207  1  0.63837880  0.25207780  0.53272820  1
  O  O4208  1  0.63837880  0.25207780  0.73272820  1
  O  O4209  1  0.63837880  0.25207780  0.93272820  1
  O  O4210  1  0.63837880  0.45207780  0.13272820  1
  O  O4211  1  0.63837880  0.45207780  0.33272820  1
  O  O4212  1  0.63837880  0.45207780  0.53272820  1
  O  O4213  1  0.63837880  0.45207780  0.73272820  1
  O  O4214  1  0.63837880  0.45207780  0.93272820  1
  O  O4215  1  0.63837880  0.65207780  0.13272820  1
  O  O4216  1  0.63837880  0.65207780  0.33272820  1
  O  O4217  1  0.63837880  0.65207780  0.53272820  1
  O  O4218  1  0.63837880  0.65207780  0.73272820  1
  O  O4219  1  0.63837880  0.65207780  0.93272820  1
  O  O4220  1  0.63837880  0.85207780  0.13272820  1
  O  O4221  1  0.63837880  0.85207780  0.33272820  1
  O  O4222  1  0.63837880  0.85207780  0.53272820  1
  O  O4223  1  0.63837880  0.85207780  0.73272820  1
  O  O4224  1  0.63837880  0.85207780  0.93272820  1
  O  O4225  1  0.83837880  0.05207780  0.13272820  1
  O  O4226  1  0.83837880  0.05207780  0.33272820  1
  O  O4227  1  0.83837880  0.05207780  0.53272820  1
  O  O4228  1  0.83837880  0.05207780  0.73272820  1
  O  O4229  1  0.83837880  0.05207780  0.93272820  1
  O  O4230  1  0.83837880  0.25207780  0.13272820  1
  O  O4231  1  0.83837880  0.25207780  0.33272820  1
  O  O4232  1  0.83837880  0.25207780  0.53272820  1
  O  O4233  1  0.83837880  0.25207780  0.73272820  1
  O  O4234  1  0.83837880  0.25207780  0.93272820  1
  O  O4235  1  0.83837880  0.45207780  0.13272820  1
  O  O4236  1  0.83837880  0.45207780  0.33272820  1
  O  O4237  1  0.83837880  0.45207780  0.53272820  1
  O  O4238  1  0.83837880  0.45207780  0.73272820  1
  O  O4239  1  0.83837880  0.45207780  0.93272820  1
  O  O4240  1  0.83837880  0.65207780  0.13272820  1
  O  O4241  1  0.83837880  0.65207780  0.33272820  1
  O  O4242  1  0.83837880  0.65207780  0.53272820  1
  O  O4243  1  0.83837880  0.65207780  0.73272820  1
  O  O4244  1  0.83837880  0.65207780  0.93272820  1
  O  O4245  1  0.83837880  0.85207780  0.13272820  1
  O  O4246  1  0.83837880  0.85207780  0.33272820  1
  O  O4247  1  0.83837880  0.85207780  0.53272820  1
  O  O4248  1  0.83837880  0.85207780  0.73272820  1
  O  O4249  1  0.83837880  0.85207780  0.93272820  1
  O  O4250  1  0.02859520  0.05007280  0.18074020  1
  O  O4251  1  0.02859520  0.05007280  0.38074020  1
  O  O4252  1  0.02859520  0.05007280  0.58074020  1
  O  O4253  1  0.02859520  0.05007280  0.78074020  1
  O  O4254  1  0.02859520  0.05007280  0.98074020  1
  O  O4255  1  0.02859520  0.25007280  0.18074020  1
  O  O4256  1  0.02859520  0.25007280  0.38074020  1
  O  O4257  1  0.02859520  0.25007280  0.58074020  1
  O  O4258  1  0.02859520  0.25007280  0.78074020  1
  O  O4259  1  0.02859520  0.25007280  0.98074020  1
  O  O4260  1  0.02859520  0.45007280  0.18074020  1
  O  O4261  1  0.02859520  0.45007280  0.38074020  1
  O  O4262  1  0.02859520  0.45007280  0.58074020  1
  O  O4263  1  0.02859520  0.45007280  0.78074020  1
  O  O4264  1  0.02859520  0.45007280  0.98074020  1
  O  O4265  1  0.02859520  0.65007280  0.18074020  1
  O  O4266  1  0.02859520  0.65007280  0.38074020  1
  O  O4267  1  0.02859520  0.65007280  0.58074020  1
  O  O4268  1  0.02859520  0.65007280  0.78074020  1
  O  O4269  1  0.02859520  0.65007280  0.98074020  1
  O  O4270  1  0.02859520  0.85007280  0.18074020  1
  O  O4271  1  0.02859520  0.85007280  0.38074020  1
  O  O4272  1  0.02859520  0.85007280  0.58074020  1
  O  O4273  1  0.02859520  0.85007280  0.78074020  1
  O  O4274  1  0.02859520  0.85007280  0.98074020  1
  O  O4275  1  0.22859520  0.05007280  0.18074020  1
  O  O4276  1  0.22859520  0.05007280  0.38074020  1
  O  O4277  1  0.22859520  0.05007280  0.58074020  1
  O  O4278  1  0.22859520  0.05007280  0.78074020  1
  O  O4279  1  0.22859520  0.05007280  0.98074020  1
  O  O4280  1  0.22859520  0.25007280  0.18074020  1
  O  O4281  1  0.22859520  0.25007280  0.38074020  1
  O  O4282  1  0.22859520  0.25007280  0.58074020  1
  O  O4283  1  0.22859520  0.25007280  0.78074020  1
  O  O4284  1  0.22859520  0.25007280  0.98074020  1
  O  O4285  1  0.22859520  0.45007280  0.18074020  1
  O  O4286  1  0.22859520  0.45007280  0.38074020  1
  O  O4287  1  0.22859520  0.45007280  0.58074020  1
  O  O4288  1  0.22859520  0.45007280  0.78074020  1
  O  O4289  1  0.22859520  0.45007280  0.98074020  1
  O  O4290  1  0.22859520  0.65007280  0.18074020  1
  O  O4291  1  0.22859520  0.65007280  0.38074020  1
  O  O4292  1  0.22859520  0.65007280  0.58074020  1
  O  O4293  1  0.22859520  0.65007280  0.78074020  1
  O  O4294  1  0.22859520  0.65007280  0.98074020  1
  O  O4295  1  0.22859520  0.85007280  0.18074020  1
  O  O4296  1  0.22859520  0.85007280  0.38074020  1
  O  O4297  1  0.22859520  0.85007280  0.58074020  1
  O  O4298  1  0.22859520  0.85007280  0.78074020  1
  O  O4299  1  0.22859520  0.85007280  0.98074020  1
  O  O4300  1  0.42859520  0.05007280  0.18074020  1
  O  O4301  1  0.42859520  0.05007280  0.38074020  1
  O  O4302  1  0.42859520  0.05007280  0.58074020  1
  O  O4303  1  0.42859520  0.05007280  0.78074020  1
  O  O4304  1  0.42859520  0.05007280  0.98074020  1
  O  O4305  1  0.42859520  0.25007280  0.18074020  1
  O  O4306  1  0.42859520  0.25007280  0.38074020  1
  O  O4307  1  0.42859520  0.25007280  0.58074020  1
  O  O4308  1  0.42859520  0.25007280  0.78074020  1
  O  O4309  1  0.42859520  0.25007280  0.98074020  1
  O  O4310  1  0.42859520  0.45007280  0.18074020  1
  O  O4311  1  0.42859520  0.45007280  0.38074020  1
  O  O4312  1  0.42859520  0.45007280  0.58074020  1
  O  O4313  1  0.42859520  0.45007280  0.78074020  1
  O  O4314  1  0.42859520  0.45007280  0.98074020  1
  O  O4315  1  0.42859520  0.65007280  0.18074020  1
  O  O4316  1  0.42859520  0.65007280  0.38074020  1
  O  O4317  1  0.42859520  0.65007280  0.58074020  1
  O  O4318  1  0.42859520  0.65007280  0.78074020  1
  O  O4319  1  0.42859520  0.65007280  0.98074020  1
  O  O4320  1  0.42859520  0.85007280  0.18074020  1
  O  O4321  1  0.42859520  0.85007280  0.38074020  1
  O  O4322  1  0.42859520  0.85007280  0.58074020  1
  O  O4323  1  0.42859520  0.85007280  0.78074020  1
  O  O4324  1  0.42859520  0.85007280  0.98074020  1
  O  O4325  1  0.62859520  0.05007280  0.18074020  1
  O  O4326  1  0.62859520  0.05007280  0.38074020  1
  O  O4327  1  0.62859520  0.05007280  0.58074020  1
  O  O4328  1  0.62859520  0.05007280  0.78074020  1
  O  O4329  1  0.62859520  0.05007280  0.98074020  1
  O  O4330  1  0.62859520  0.25007280  0.18074020  1
  O  O4331  1  0.62859520  0.25007280  0.38074020  1
  O  O4332  1  0.62859520  0.25007280  0.58074020  1
  O  O4333  1  0.62859520  0.25007280  0.78074020  1
  O  O4334  1  0.62859520  0.25007280  0.98074020  1
  O  O4335  1  0.62859520  0.45007280  0.18074020  1
  O  O4336  1  0.62859520  0.45007280  0.38074020  1
  O  O4337  1  0.62859520  0.45007280  0.58074020  1
  O  O4338  1  0.62859520  0.45007280  0.78074020  1
  O  O4339  1  0.62859520  0.45007280  0.98074020  1
  O  O4340  1  0.62859520  0.65007280  0.18074020  1
  O  O4341  1  0.62859520  0.65007280  0.38074020  1
  O  O4342  1  0.62859520  0.65007280  0.58074020  1
  O  O4343  1  0.62859520  0.65007280  0.78074020  1
  O  O4344  1  0.62859520  0.65007280  0.98074020  1
  O  O4345  1  0.62859520  0.85007280  0.18074020  1
  O  O4346  1  0.62859520  0.85007280  0.38074020  1
  O  O4347  1  0.62859520  0.85007280  0.58074020  1
  O  O4348  1  0.62859520  0.85007280  0.78074020  1
  O  O4349  1  0.62859520  0.85007280  0.98074020  1
  O  O4350  1  0.82859520  0.05007280  0.18074020  1
  O  O4351  1  0.82859520  0.05007280  0.38074020  1
  O  O4352  1  0.82859520  0.05007280  0.58074020  1
  O  O4353  1  0.82859520  0.05007280  0.78074020  1
  O  O4354  1  0.82859520  0.05007280  0.98074020  1
  O  O4355  1  0.82859520  0.25007280  0.18074020  1
  O  O4356  1  0.82859520  0.25007280  0.38074020  1
  O  O4357  1  0.82859520  0.25007280  0.58074020  1
  O  O4358  1  0.82859520  0.25007280  0.78074020  1
  O  O4359  1  0.82859520  0.25007280  0.98074020  1
  O  O4360  1  0.82859520  0.45007280  0.18074020  1
  O  O4361  1  0.82859520  0.45007280  0.38074020  1
  O  O4362  1  0.82859520  0.45007280  0.58074020  1
  O  O4363  1  0.82859520  0.45007280  0.78074020  1
  O  O4364  1  0.82859520  0.45007280  0.98074020  1
  O  O4365  1  0.82859520  0.65007280  0.18074020  1
  O  O4366  1  0.82859520  0.65007280  0.38074020  1
  O  O4367  1  0.82859520  0.65007280  0.58074020  1
  O  O4368  1  0.82859520  0.65007280  0.78074020  1
  O  O4369  1  0.82859520  0.65007280  0.98074020  1
  O  O4370  1  0.82859520  0.85007280  0.18074020  1
  O  O4371  1  0.82859520  0.85007280  0.38074020  1
  O  O4372  1  0.82859520  0.85007280  0.58074020  1
  O  O4373  1  0.82859520  0.85007280  0.78074020  1
  O  O4374  1  0.82859520  0.85007280  0.98074020  1
  O  O4375  1  0.02632400  0.03715360  0.03734560  1
  O  O4376  1  0.02632400  0.03715360  0.23734560  1
  O  O4377  1  0.02632400  0.03715360  0.43734560  1
  O  O4378  1  0.02632400  0.03715360  0.63734560  1
  O  O4379  1  0.02632400  0.03715360  0.83734560  1
  O  O4380  1  0.02632400  0.23715360  0.03734560  1
  O  O4381  1  0.02632400  0.23715360  0.23734560  1
  O  O4382  1  0.02632400  0.23715360  0.43734560  1
  O  O4383  1  0.02632400  0.23715360  0.63734560  1
  O  O4384  1  0.02632400  0.23715360  0.83734560  1
  O  O4385  1  0.02632400  0.43715360  0.03734560  1
  O  O4386  1  0.02632400  0.43715360  0.23734560  1
  O  O4387  1  0.02632400  0.43715360  0.43734560  1
  O  O4388  1  0.02632400  0.43715360  0.63734560  1
  O  O4389  1  0.02632400  0.43715360  0.83734560  1
  O  O4390  1  0.02632400  0.63715360  0.03734560  1
  O  O4391  1  0.02632400  0.63715360  0.23734560  1
  O  O4392  1  0.02632400  0.63715360  0.43734560  1
  O  O4393  1  0.02632400  0.63715360  0.63734560  1
  O  O4394  1  0.02632400  0.63715360  0.83734560  1
  O  O4395  1  0.02632400  0.83715360  0.03734560  1
  O  O4396  1  0.02632400  0.83715360  0.23734560  1
  O  O4397  1  0.02632400  0.83715360  0.43734560  1
  O  O4398  1  0.02632400  0.83715360  0.63734560  1
  O  O4399  1  0.02632400  0.83715360  0.83734560  1
  O  O4400  1  0.22632400  0.03715360  0.03734560  1
  O  O4401  1  0.22632400  0.03715360  0.23734560  1
  O  O4402  1  0.22632400  0.03715360  0.43734560  1
  O  O4403  1  0.22632400  0.03715360  0.63734560  1
  O  O4404  1  0.22632400  0.03715360  0.83734560  1
  O  O4405  1  0.22632400  0.23715360  0.03734560  1
  O  O4406  1  0.22632400  0.23715360  0.23734560  1
  O  O4407  1  0.22632400  0.23715360  0.43734560  1
  O  O4408  1  0.22632400  0.23715360  0.63734560  1
  O  O4409  1  0.22632400  0.23715360  0.83734560  1
  O  O4410  1  0.22632400  0.43715360  0.03734560  1
  O  O4411  1  0.22632400  0.43715360  0.23734560  1
  O  O4412  1  0.22632400  0.43715360  0.43734560  1
  O  O4413  1  0.22632400  0.43715360  0.63734560  1
  O  O4414  1  0.22632400  0.43715360  0.83734560  1
  O  O4415  1  0.22632400  0.63715360  0.03734560  1
  O  O4416  1  0.22632400  0.63715360  0.23734560  1
  O  O4417  1  0.22632400  0.63715360  0.43734560  1
  O  O4418  1  0.22632400  0.63715360  0.63734560  1
  O  O4419  1  0.22632400  0.63715360  0.83734560  1
  O  O4420  1  0.22632400  0.83715360  0.03734560  1
  O  O4421  1  0.22632400  0.83715360  0.23734560  1
  O  O4422  1  0.22632400  0.83715360  0.43734560  1
  O  O4423  1  0.22632400  0.83715360  0.63734560  1
  O  O4424  1  0.22632400  0.83715360  0.83734560  1
  O  O4425  1  0.42632400  0.03715360  0.03734560  1
  O  O4426  1  0.42632400  0.03715360  0.23734560  1
  O  O4427  1  0.42632400  0.03715360  0.43734560  1
  O  O4428  1  0.42632400  0.03715360  0.63734560  1
  O  O4429  1  0.42632400  0.03715360  0.83734560  1
  O  O4430  1  0.42632400  0.23715360  0.03734560  1
  O  O4431  1  0.42632400  0.23715360  0.23734560  1
  O  O4432  1  0.42632400  0.23715360  0.43734560  1
  O  O4433  1  0.42632400  0.23715360  0.63734560  1
  O  O4434  1  0.42632400  0.23715360  0.83734560  1
  O  O4435  1  0.42632400  0.43715360  0.03734560  1
  O  O4436  1  0.42632400  0.43715360  0.23734560  1
  O  O4437  1  0.42632400  0.43715360  0.43734560  1
  O  O4438  1  0.42632400  0.43715360  0.63734560  1
  O  O4439  1  0.42632400  0.43715360  0.83734560  1
  O  O4440  1  0.42632400  0.63715360  0.03734560  1
  O  O4441  1  0.42632400  0.63715360  0.23734560  1
  O  O4442  1  0.42632400  0.63715360  0.43734560  1
  O  O4443  1  0.42632400  0.63715360  0.63734560  1
  O  O4444  1  0.42632400  0.63715360  0.83734560  1
  O  O4445  1  0.42632400  0.83715360  0.03734560  1
  O  O4446  1  0.42632400  0.83715360  0.23734560  1
  O  O4447  1  0.42632400  0.83715360  0.43734560  1
  O  O4448  1  0.42632400  0.83715360  0.63734560  1
  O  O4449  1  0.42632400  0.83715360  0.83734560  1
  O  O4450  1  0.62632400  0.03715360  0.03734560  1
  O  O4451  1  0.62632400  0.03715360  0.23734560  1
  O  O4452  1  0.62632400  0.03715360  0.43734560  1
  O  O4453  1  0.62632400  0.03715360  0.63734560  1
  O  O4454  1  0.62632400  0.03715360  0.83734560  1
  O  O4455  1  0.62632400  0.23715360  0.03734560  1
  O  O4456  1  0.62632400  0.23715360  0.23734560  1
  O  O4457  1  0.62632400  0.23715360  0.43734560  1
  O  O4458  1  0.62632400  0.23715360  0.63734560  1
  O  O4459  1  0.62632400  0.23715360  0.83734560  1
  O  O4460  1  0.62632400  0.43715360  0.03734560  1
  O  O4461  1  0.62632400  0.43715360  0.23734560  1
  O  O4462  1  0.62632400  0.43715360  0.43734560  1
  O  O4463  1  0.62632400  0.43715360  0.63734560  1
  O  O4464  1  0.62632400  0.43715360  0.83734560  1
  O  O4465  1  0.62632400  0.63715360  0.03734560  1
  O  O4466  1  0.62632400  0.63715360  0.23734560  1
  O  O4467  1  0.62632400  0.63715360  0.43734560  1
  O  O4468  1  0.62632400  0.63715360  0.63734560  1
  O  O4469  1  0.62632400  0.63715360  0.83734560  1
  O  O4470  1  0.62632400  0.83715360  0.03734560  1
  O  O4471  1  0.62632400  0.83715360  0.23734560  1
  O  O4472  1  0.62632400  0.83715360  0.43734560  1
  O  O4473  1  0.62632400  0.83715360  0.63734560  1
  O  O4474  1  0.62632400  0.83715360  0.83734560  1
  O  O4475  1  0.82632400  0.03715360  0.03734560  1
  O  O4476  1  0.82632400  0.03715360  0.23734560  1
  O  O4477  1  0.82632400  0.03715360  0.43734560  1
  O  O4478  1  0.82632400  0.03715360  0.63734560  1
  O  O4479  1  0.82632400  0.03715360  0.83734560  1
  O  O4480  1  0.82632400  0.23715360  0.03734560  1
  O  O4481  1  0.82632400  0.23715360  0.23734560  1
  O  O4482  1  0.82632400  0.23715360  0.43734560  1
  O  O4483  1  0.82632400  0.23715360  0.63734560  1
  O  O4484  1  0.82632400  0.23715360  0.83734560  1
  O  O4485  1  0.82632400  0.43715360  0.03734560  1
  O  O4486  1  0.82632400  0.43715360  0.23734560  1
  O  O4487  1  0.82632400  0.43715360  0.43734560  1
  O  O4488  1  0.82632400  0.43715360  0.63734560  1
  O  O4489  1  0.82632400  0.43715360  0.83734560  1
  O  O4490  1  0.82632400  0.63715360  0.03734560  1
  O  O4491  1  0.82632400  0.63715360  0.23734560  1
  O  O4492  1  0.82632400  0.63715360  0.43734560  1
  O  O4493  1  0.82632400  0.63715360  0.63734560  1
  O  O4494  1  0.82632400  0.63715360  0.83734560  1
  O  O4495  1  0.82632400  0.83715360  0.03734560  1
  O  O4496  1  0.82632400  0.83715360  0.23734560  1
  O  O4497  1  0.82632400  0.83715360  0.43734560  1
  O  O4498  1  0.82632400  0.83715360  0.63734560  1
  O  O4499  1  0.82632400  0.83715360  0.83734560  1
  O  O4500  1  0.04434000  0.12316200  0.11857120  1
  O  O4501  1  0.04434000  0.12316200  0.31857120  1
  O  O4502  1  0.04434000  0.12316200  0.51857120  1
  O  O4503  1  0.04434000  0.12316200  0.71857120  1
  O  O4504  1  0.04434000  0.12316200  0.91857120  1
  O  O4505  1  0.04434000  0.32316200  0.11857120  1
  O  O4506  1  0.04434000  0.32316200  0.31857120  1
  O  O4507  1  0.04434000  0.32316200  0.51857120  1
  O  O4508  1  0.04434000  0.32316200  0.71857120  1
  O  O4509  1  0.04434000  0.32316200  0.91857120  1
  O  O4510  1  0.04434000  0.52316200  0.11857120  1
  O  O4511  1  0.04434000  0.52316200  0.31857120  1
  O  O4512  1  0.04434000  0.52316200  0.51857120  1
  O  O4513  1  0.04434000  0.52316200  0.71857120  1
  O  O4514  1  0.04434000  0.52316200  0.91857120  1
  O  O4515  1  0.04434000  0.72316200  0.11857120  1
  O  O4516  1  0.04434000  0.72316200  0.31857120  1
  O  O4517  1  0.04434000  0.72316200  0.51857120  1
  O  O4518  1  0.04434000  0.72316200  0.71857120  1
  O  O4519  1  0.04434000  0.72316200  0.91857120  1
  O  O4520  1  0.04434000  0.92316200  0.11857120  1
  O  O4521  1  0.04434000  0.92316200  0.31857120  1
  O  O4522  1  0.04434000  0.92316200  0.51857120  1
  O  O4523  1  0.04434000  0.92316200  0.71857120  1
  O  O4524  1  0.04434000  0.92316200  0.91857120  1
  O  O4525  1  0.24434000  0.12316200  0.11857120  1
  O  O4526  1  0.24434000  0.12316200  0.31857120  1
  O  O4527  1  0.24434000  0.12316200  0.51857120  1
  O  O4528  1  0.24434000  0.12316200  0.71857120  1
  O  O4529  1  0.24434000  0.12316200  0.91857120  1
  O  O4530  1  0.24434000  0.32316200  0.11857120  1
  O  O4531  1  0.24434000  0.32316200  0.31857120  1
  O  O4532  1  0.24434000  0.32316200  0.51857120  1
  O  O4533  1  0.24434000  0.32316200  0.71857120  1
  O  O4534  1  0.24434000  0.32316200  0.91857120  1
  O  O4535  1  0.24434000  0.52316200  0.11857120  1
  O  O4536  1  0.24434000  0.52316200  0.31857120  1
  O  O4537  1  0.24434000  0.52316200  0.51857120  1
  O  O4538  1  0.24434000  0.52316200  0.71857120  1
  O  O4539  1  0.24434000  0.52316200  0.91857120  1
  O  O4540  1  0.24434000  0.72316200  0.11857120  1
  O  O4541  1  0.24434000  0.72316200  0.31857120  1
  O  O4542  1  0.24434000  0.72316200  0.51857120  1
  O  O4543  1  0.24434000  0.72316200  0.71857120  1
  O  O4544  1  0.24434000  0.72316200  0.91857120  1
  O  O4545  1  0.24434000  0.92316200  0.11857120  1
  O  O4546  1  0.24434000  0.92316200  0.31857120  1
  O  O4547  1  0.24434000  0.92316200  0.51857120  1
  O  O4548  1  0.24434000  0.92316200  0.71857120  1
  O  O4549  1  0.24434000  0.92316200  0.91857120  1
  O  O4550  1  0.44434000  0.12316200  0.11857120  1
  O  O4551  1  0.44434000  0.12316200  0.31857120  1
  O  O4552  1  0.44434000  0.12316200  0.51857120  1
  O  O4553  1  0.44434000  0.12316200  0.71857120  1
  O  O4554  1  0.44434000  0.12316200  0.91857120  1
  O  O4555  1  0.44434000  0.32316200  0.11857120  1
  O  O4556  1  0.44434000  0.32316200  0.31857120  1
  O  O4557  1  0.44434000  0.32316200  0.51857120  1
  O  O4558  1  0.44434000  0.32316200  0.71857120  1
  O  O4559  1  0.44434000  0.32316200  0.91857120  1
  O  O4560  1  0.44434000  0.52316200  0.11857120  1
  O  O4561  1  0.44434000  0.52316200  0.31857120  1
  O  O4562  1  0.44434000  0.52316200  0.51857120  1
  O  O4563  1  0.44434000  0.52316200  0.71857120  1
  O  O4564  1  0.44434000  0.52316200  0.91857120  1
  O  O4565  1  0.44434000  0.72316200  0.11857120  1
  O  O4566  1  0.44434000  0.72316200  0.31857120  1
  O  O4567  1  0.44434000  0.72316200  0.51857120  1
  O  O4568  1  0.44434000  0.72316200  0.71857120  1
  O  O4569  1  0.44434000  0.72316200  0.91857120  1
  O  O4570  1  0.44434000  0.92316200  0.11857120  1
  O  O4571  1  0.44434000  0.92316200  0.31857120  1
  O  O4572  1  0.44434000  0.92316200  0.51857120  1
  O  O4573  1  0.44434000  0.92316200  0.71857120  1
  O  O4574  1  0.44434000  0.92316200  0.91857120  1
  O  O4575  1  0.64434000  0.12316200  0.11857120  1
  O  O4576  1  0.64434000  0.12316200  0.31857120  1
  O  O4577  1  0.64434000  0.12316200  0.51857120  1
  O  O4578  1  0.64434000  0.12316200  0.71857120  1
  O  O4579  1  0.64434000  0.12316200  0.91857120  1
  O  O4580  1  0.64434000  0.32316200  0.11857120  1
  O  O4581  1  0.64434000  0.32316200  0.31857120  1
  O  O4582  1  0.64434000  0.32316200  0.51857120  1
  O  O4583  1  0.64434000  0.32316200  0.71857120  1
  O  O4584  1  0.64434000  0.32316200  0.91857120  1
  O  O4585  1  0.64434000  0.52316200  0.11857120  1
  O  O4586  1  0.64434000  0.52316200  0.31857120  1
  O  O4587  1  0.64434000  0.52316200  0.51857120  1
  O  O4588  1  0.64434000  0.52316200  0.71857120  1
  O  O4589  1  0.64434000  0.52316200  0.91857120  1
  O  O4590  1  0.64434000  0.72316200  0.11857120  1
  O  O4591  1  0.64434000  0.72316200  0.31857120  1
  O  O4592  1  0.64434000  0.72316200  0.51857120  1
  O  O4593  1  0.64434000  0.72316200  0.71857120  1
  O  O4594  1  0.64434000  0.72316200  0.91857120  1
  O  O4595  1  0.64434000  0.92316200  0.11857120  1
  O  O4596  1  0.64434000  0.92316200  0.31857120  1
  O  O4597  1  0.64434000  0.92316200  0.51857120  1
  O  O4598  1  0.64434000  0.92316200  0.71857120  1
  O  O4599  1  0.64434000  0.92316200  0.91857120  1
  O  O4600  1  0.84434000  0.12316200  0.11857120  1
  O  O4601  1  0.84434000  0.12316200  0.31857120  1
  O  O4602  1  0.84434000  0.12316200  0.51857120  1
  O  O4603  1  0.84434000  0.12316200  0.71857120  1
  O  O4604  1  0.84434000  0.12316200  0.91857120  1
  O  O4605  1  0.84434000  0.32316200  0.11857120  1
  O  O4606  1  0.84434000  0.32316200  0.31857120  1
  O  O4607  1  0.84434000  0.32316200  0.51857120  1
  O  O4608  1  0.84434000  0.32316200  0.71857120  1
  O  O4609  1  0.84434000  0.32316200  0.91857120  1
  O  O4610  1  0.84434000  0.52316200  0.11857120  1
  O  O4611  1  0.84434000  0.52316200  0.31857120  1
  O  O4612  1  0.84434000  0.52316200  0.51857120  1
  O  O4613  1  0.84434000  0.52316200  0.71857120  1
  O  O4614  1  0.84434000  0.52316200  0.91857120  1
  O  O4615  1  0.84434000  0.72316200  0.11857120  1
  O  O4616  1  0.84434000  0.72316200  0.31857120  1
  O  O4617  1  0.84434000  0.72316200  0.51857120  1
  O  O4618  1  0.84434000  0.72316200  0.71857120  1
  O  O4619  1  0.84434000  0.72316200  0.91857120  1
  O  O4620  1  0.84434000  0.92316200  0.11857120  1
  O  O4621  1  0.84434000  0.92316200  0.31857120  1
  O  O4622  1  0.84434000  0.92316200  0.51857120  1
  O  O4623  1  0.84434000  0.92316200  0.71857120  1
  O  O4624  1  0.84434000  0.92316200  0.91857120  1
  O  O4625  1  0.05188440  0.14012180  0.01536980  1
  O  O4626  1  0.05188440  0.14012180  0.21536980  1
  O  O4627  1  0.05188440  0.14012180  0.41536980  1
  O  O4628  1  0.05188440  0.14012180  0.61536980  1
  O  O4629  1  0.05188440  0.14012180  0.81536980  1
  O  O4630  1  0.05188440  0.34012180  0.01536980  1
  O  O4631  1  0.05188440  0.34012180  0.21536980  1
  O  O4632  1  0.05188440  0.34012180  0.41536980  1
  O  O4633  1  0.05188440  0.34012180  0.61536980  1
  O  O4634  1  0.05188440  0.34012180  0.81536980  1
  O  O4635  1  0.05188440  0.54012180  0.01536980  1
  O  O4636  1  0.05188440  0.54012180  0.21536980  1
  O  O4637  1  0.05188440  0.54012180  0.41536980  1
  O  O4638  1  0.05188440  0.54012180  0.61536980  1
  O  O4639  1  0.05188440  0.54012180  0.81536980  1
  O  O4640  1  0.05188440  0.74012180  0.01536980  1
  O  O4641  1  0.05188440  0.74012180  0.21536980  1
  O  O4642  1  0.05188440  0.74012180  0.41536980  1
  O  O4643  1  0.05188440  0.74012180  0.61536980  1
  O  O4644  1  0.05188440  0.74012180  0.81536980  1
  O  O4645  1  0.05188440  0.94012180  0.01536980  1
  O  O4646  1  0.05188440  0.94012180  0.21536980  1
  O  O4647  1  0.05188440  0.94012180  0.41536980  1
  O  O4648  1  0.05188440  0.94012180  0.61536980  1
  O  O4649  1  0.05188440  0.94012180  0.81536980  1
  O  O4650  1  0.25188440  0.14012180  0.01536980  1
  O  O4651  1  0.25188440  0.14012180  0.21536980  1
  O  O4652  1  0.25188440  0.14012180  0.41536980  1
  O  O4653  1  0.25188440  0.14012180  0.61536980  1
  O  O4654  1  0.25188440  0.14012180  0.81536980  1
  O  O4655  1  0.25188440  0.34012180  0.01536980  1
  O  O4656  1  0.25188440  0.34012180  0.21536980  1
  O  O4657  1  0.25188440  0.34012180  0.41536980  1
  O  O4658  1  0.25188440  0.34012180  0.61536980  1
  O  O4659  1  0.25188440  0.34012180  0.81536980  1
  O  O4660  1  0.25188440  0.54012180  0.01536980  1
  O  O4661  1  0.25188440  0.54012180  0.21536980  1
  O  O4662  1  0.25188440  0.54012180  0.41536980  1
  O  O4663  1  0.25188440  0.54012180  0.61536980  1
  O  O4664  1  0.25188440  0.54012180  0.81536980  1
  O  O4665  1  0.25188440  0.74012180  0.01536980  1
  O  O4666  1  0.25188440  0.74012180  0.21536980  1
  O  O4667  1  0.25188440  0.74012180  0.41536980  1
  O  O4668  1  0.25188440  0.74012180  0.61536980  1
  O  O4669  1  0.25188440  0.74012180  0.81536980  1
  O  O4670  1  0.25188440  0.94012180  0.01536980  1
  O  O4671  1  0.25188440  0.94012180  0.21536980  1
  O  O4672  1  0.25188440  0.94012180  0.41536980  1
  O  O4673  1  0.25188440  0.94012180  0.61536980  1
  O  O4674  1  0.25188440  0.94012180  0.81536980  1
  O  O4675  1  0.45188440  0.14012180  0.01536980  1
  O  O4676  1  0.45188440  0.14012180  0.21536980  1
  O  O4677  1  0.45188440  0.14012180  0.41536980  1
  O  O4678  1  0.45188440  0.14012180  0.61536980  1
  O  O4679  1  0.45188440  0.14012180  0.81536980  1
  O  O4680  1  0.45188440  0.34012180  0.01536980  1
  O  O4681  1  0.45188440  0.34012180  0.21536980  1
  O  O4682  1  0.45188440  0.34012180  0.41536980  1
  O  O4683  1  0.45188440  0.34012180  0.61536980  1
  O  O4684  1  0.45188440  0.34012180  0.81536980  1
  O  O4685  1  0.45188440  0.54012180  0.01536980  1
  O  O4686  1  0.45188440  0.54012180  0.21536980  1
  O  O4687  1  0.45188440  0.54012180  0.41536980  1
  O  O4688  1  0.45188440  0.54012180  0.61536980  1
  O  O4689  1  0.45188440  0.54012180  0.81536980  1
  O  O4690  1  0.45188440  0.74012180  0.01536980  1
  O  O4691  1  0.45188440  0.74012180  0.21536980  1
  O  O4692  1  0.45188440  0.74012180  0.41536980  1
  O  O4693  1  0.45188440  0.74012180  0.61536980  1
  O  O4694  1  0.45188440  0.74012180  0.81536980  1
  O  O4695  1  0.45188440  0.94012180  0.01536980  1
  O  O4696  1  0.45188440  0.94012180  0.21536980  1
  O  O4697  1  0.45188440  0.94012180  0.41536980  1
  O  O4698  1  0.45188440  0.94012180  0.61536980  1
  O  O4699  1  0.45188440  0.94012180  0.81536980  1
  O  O4700  1  0.65188440  0.14012180  0.01536980  1
  O  O4701  1  0.65188440  0.14012180  0.21536980  1
  O  O4702  1  0.65188440  0.14012180  0.41536980  1
  O  O4703  1  0.65188440  0.14012180  0.61536980  1
  O  O4704  1  0.65188440  0.14012180  0.81536980  1
  O  O4705  1  0.65188440  0.34012180  0.01536980  1
  O  O4706  1  0.65188440  0.34012180  0.21536980  1
  O  O4707  1  0.65188440  0.34012180  0.41536980  1
  O  O4708  1  0.65188440  0.34012180  0.61536980  1
  O  O4709  1  0.65188440  0.34012180  0.81536980  1
  O  O4710  1  0.65188440  0.54012180  0.01536980  1
  O  O4711  1  0.65188440  0.54012180  0.21536980  1
  O  O4712  1  0.65188440  0.54012180  0.41536980  1
  O  O4713  1  0.65188440  0.54012180  0.61536980  1
  O  O4714  1  0.65188440  0.54012180  0.81536980  1
  O  O4715  1  0.65188440  0.74012180  0.01536980  1
  O  O4716  1  0.65188440  0.74012180  0.21536980  1
  O  O4717  1  0.65188440  0.74012180  0.41536980  1
  O  O4718  1  0.65188440  0.74012180  0.61536980  1
  O  O4719  1  0.65188440  0.74012180  0.81536980  1
  O  O4720  1  0.65188440  0.94012180  0.01536980  1
  O  O4721  1  0.65188440  0.94012180  0.21536980  1
  O  O4722  1  0.65188440  0.94012180  0.41536980  1
  O  O4723  1  0.65188440  0.94012180  0.61536980  1
  O  O4724  1  0.65188440  0.94012180  0.81536980  1
  O  O4725  1  0.85188440  0.14012180  0.01536980  1
  O  O4726  1  0.85188440  0.14012180  0.21536980  1
  O  O4727  1  0.85188440  0.14012180  0.41536980  1
  O  O4728  1  0.85188440  0.14012180  0.61536980  1
  O  O4729  1  0.85188440  0.14012180  0.81536980  1
  O  O4730  1  0.85188440  0.34012180  0.01536980  1
  O  O4731  1  0.85188440  0.34012180  0.21536980  1
  O  O4732  1  0.85188440  0.34012180  0.41536980  1
  O  O4733  1  0.85188440  0.34012180  0.61536980  1
  O  O4734  1  0.85188440  0.34012180  0.81536980  1
  O  O4735  1  0.85188440  0.54012180  0.01536980  1
  O  O4736  1  0.85188440  0.54012180  0.21536980  1
  O  O4737  1  0.85188440  0.54012180  0.41536980  1
  O  O4738  1  0.85188440  0.54012180  0.61536980  1
  O  O4739  1  0.85188440  0.54012180  0.81536980  1
  O  O4740  1  0.85188440  0.74012180  0.01536980  1
  O  O4741  1  0.85188440  0.74012180  0.21536980  1
  O  O4742  1  0.85188440  0.74012180  0.41536980  1
  O  O4743  1  0.85188440  0.74012180  0.61536980  1
  O  O4744  1  0.85188440  0.74012180  0.81536980  1
  O  O4745  1  0.85188440  0.94012180  0.01536980  1
  O  O4746  1  0.85188440  0.94012180  0.21536980  1
  O  O4747  1  0.85188440  0.94012180  0.41536980  1
  O  O4748  1  0.85188440  0.94012180  0.61536980  1
  O  O4749  1  0.85188440  0.94012180  0.81536980  1
  O  O4750  1  0.04284840  0.13275780  0.07187220  1
  O  O4751  1  0.04284840  0.13275780  0.27187220  1
  O  O4752  1  0.04284840  0.13275780  0.47187220  1
  O  O4753  1  0.04284840  0.13275780  0.67187220  1
  O  O4754  1  0.04284840  0.13275780  0.87187220  1
  O  O4755  1  0.04284840  0.33275780  0.07187220  1
  O  O4756  1  0.04284840  0.33275780  0.27187220  1
  O  O4757  1  0.04284840  0.33275780  0.47187220  1
  O  O4758  1  0.04284840  0.33275780  0.67187220  1
  O  O4759  1  0.04284840  0.33275780  0.87187220  1
  O  O4760  1  0.04284840  0.53275780  0.07187220  1
  O  O4761  1  0.04284840  0.53275780  0.27187220  1
  O  O4762  1  0.04284840  0.53275780  0.47187220  1
  O  O4763  1  0.04284840  0.53275780  0.67187220  1
  O  O4764  1  0.04284840  0.53275780  0.87187220  1
  O  O4765  1  0.04284840  0.73275780  0.07187220  1
  O  O4766  1  0.04284840  0.73275780  0.27187220  1
  O  O4767  1  0.04284840  0.73275780  0.47187220  1
  O  O4768  1  0.04284840  0.73275780  0.67187220  1
  O  O4769  1  0.04284840  0.73275780  0.87187220  1
  O  O4770  1  0.04284840  0.93275780  0.07187220  1
  O  O4771  1  0.04284840  0.93275780  0.27187220  1
  O  O4772  1  0.04284840  0.93275780  0.47187220  1
  O  O4773  1  0.04284840  0.93275780  0.67187220  1
  O  O4774  1  0.04284840  0.93275780  0.87187220  1
  O  O4775  1  0.24284840  0.13275780  0.07187220  1
  O  O4776  1  0.24284840  0.13275780  0.27187220  1
  O  O4777  1  0.24284840  0.13275780  0.47187220  1
  O  O4778  1  0.24284840  0.13275780  0.67187220  1
  O  O4779  1  0.24284840  0.13275780  0.87187220  1
  O  O4780  1  0.24284840  0.33275780  0.07187220  1
  O  O4781  1  0.24284840  0.33275780  0.27187220  1
  O  O4782  1  0.24284840  0.33275780  0.47187220  1
  O  O4783  1  0.24284840  0.33275780  0.67187220  1
  O  O4784  1  0.24284840  0.33275780  0.87187220  1
  O  O4785  1  0.24284840  0.53275780  0.07187220  1
  O  O4786  1  0.24284840  0.53275780  0.27187220  1
  O  O4787  1  0.24284840  0.53275780  0.47187220  1
  O  O4788  1  0.24284840  0.53275780  0.67187220  1
  O  O4789  1  0.24284840  0.53275780  0.87187220  1
  O  O4790  1  0.24284840  0.73275780  0.07187220  1
  O  O4791  1  0.24284840  0.73275780  0.27187220  1
  O  O4792  1  0.24284840  0.73275780  0.47187220  1
  O  O4793  1  0.24284840  0.73275780  0.67187220  1
  O  O4794  1  0.24284840  0.73275780  0.87187220  1
  O  O4795  1  0.24284840  0.93275780  0.07187220  1
  O  O4796  1  0.24284840  0.93275780  0.27187220  1
  O  O4797  1  0.24284840  0.93275780  0.47187220  1
  O  O4798  1  0.24284840  0.93275780  0.67187220  1
  O  O4799  1  0.24284840  0.93275780  0.87187220  1
  O  O4800  1  0.44284840  0.13275780  0.07187220  1
  O  O4801  1  0.44284840  0.13275780  0.27187220  1
  O  O4802  1  0.44284840  0.13275780  0.47187220  1
  O  O4803  1  0.44284840  0.13275780  0.67187220  1
  O  O4804  1  0.44284840  0.13275780  0.87187220  1
  O  O4805  1  0.44284840  0.33275780  0.07187220  1
  O  O4806  1  0.44284840  0.33275780  0.27187220  1
  O  O4807  1  0.44284840  0.33275780  0.47187220  1
  O  O4808  1  0.44284840  0.33275780  0.67187220  1
  O  O4809  1  0.44284840  0.33275780  0.87187220  1
  O  O4810  1  0.44284840  0.53275780  0.07187220  1
  O  O4811  1  0.44284840  0.53275780  0.27187220  1
  O  O4812  1  0.44284840  0.53275780  0.47187220  1
  O  O4813  1  0.44284840  0.53275780  0.67187220  1
  O  O4814  1  0.44284840  0.53275780  0.87187220  1
  O  O4815  1  0.44284840  0.73275780  0.07187220  1
  O  O4816  1  0.44284840  0.73275780  0.27187220  1
  O  O4817  1  0.44284840  0.73275780  0.47187220  1
  O  O4818  1  0.44284840  0.73275780  0.67187220  1
  O  O4819  1  0.44284840  0.73275780  0.87187220  1
  O  O4820  1  0.44284840  0.93275780  0.07187220  1
  O  O4821  1  0.44284840  0.93275780  0.27187220  1
  O  O4822  1  0.44284840  0.93275780  0.47187220  1
  O  O4823  1  0.44284840  0.93275780  0.67187220  1
  O  O4824  1  0.44284840  0.93275780  0.87187220  1
  O  O4825  1  0.64284840  0.13275780  0.07187220  1
  O  O4826  1  0.64284840  0.13275780  0.27187220  1
  O  O4827  1  0.64284840  0.13275780  0.47187220  1
  O  O4828  1  0.64284840  0.13275780  0.67187220  1
  O  O4829  1  0.64284840  0.13275780  0.87187220  1
  O  O4830  1  0.64284840  0.33275780  0.07187220  1
  O  O4831  1  0.64284840  0.33275780  0.27187220  1
  O  O4832  1  0.64284840  0.33275780  0.47187220  1
  O  O4833  1  0.64284840  0.33275780  0.67187220  1
  O  O4834  1  0.64284840  0.33275780  0.87187220  1
  O  O4835  1  0.64284840  0.53275780  0.07187220  1
  O  O4836  1  0.64284840  0.53275780  0.27187220  1
  O  O4837  1  0.64284840  0.53275780  0.47187220  1
  O  O4838  1  0.64284840  0.53275780  0.67187220  1
  O  O4839  1  0.64284840  0.53275780  0.87187220  1
  O  O4840  1  0.64284840  0.73275780  0.07187220  1
  O  O4841  1  0.64284840  0.73275780  0.27187220  1
  O  O4842  1  0.64284840  0.73275780  0.47187220  1
  O  O4843  1  0.64284840  0.73275780  0.67187220  1
  O  O4844  1  0.64284840  0.73275780  0.87187220  1
  O  O4845  1  0.64284840  0.93275780  0.07187220  1
  O  O4846  1  0.64284840  0.93275780  0.27187220  1
  O  O4847  1  0.64284840  0.93275780  0.47187220  1
  O  O4848  1  0.64284840  0.93275780  0.67187220  1
  O  O4849  1  0.64284840  0.93275780  0.87187220  1
  O  O4850  1  0.84284840  0.13275780  0.07187220  1
  O  O4851  1  0.84284840  0.13275780  0.27187220  1
  O  O4852  1  0.84284840  0.13275780  0.47187220  1
  O  O4853  1  0.84284840  0.13275780  0.67187220  1
  O  O4854  1  0.84284840  0.13275780  0.87187220  1
  O  O4855  1  0.84284840  0.33275780  0.07187220  1
  O  O4856  1  0.84284840  0.33275780  0.27187220  1
  O  O4857  1  0.84284840  0.33275780  0.47187220  1
  O  O4858  1  0.84284840  0.33275780  0.67187220  1
  O  O4859  1  0.84284840  0.33275780  0.87187220  1
  O  O4860  1  0.84284840  0.53275780  0.07187220  1
  O  O4861  1  0.84284840  0.53275780  0.27187220  1
  O  O4862  1  0.84284840  0.53275780  0.47187220  1
  O  O4863  1  0.84284840  0.53275780  0.67187220  1
  O  O4864  1  0.84284840  0.53275780  0.87187220  1
  O  O4865  1  0.84284840  0.73275780  0.07187220  1
  O  O4866  1  0.84284840  0.73275780  0.27187220  1
  O  O4867  1  0.84284840  0.73275780  0.47187220  1
  O  O4868  1  0.84284840  0.73275780  0.67187220  1
  O  O4869  1  0.84284840  0.73275780  0.87187220  1
  O  O4870  1  0.84284840  0.93275780  0.07187220  1
  O  O4871  1  0.84284840  0.93275780  0.27187220  1
  O  O4872  1  0.84284840  0.93275780  0.47187220  1
  O  O4873  1  0.84284840  0.93275780  0.67187220  1
  O  O4874  1  0.84284840  0.93275780  0.87187220  1
  O  O4875  1  0.04973540  0.19014620  0.19497460  1
  O  O4876  1  0.04973540  0.19014620  0.39497460  1
  O  O4877  1  0.04973540  0.19014620  0.59497460  1
  O  O4878  1  0.04973540  0.19014620  0.79497460  1
  O  O4879  1  0.04973540  0.19014620  0.99497460  1
  O  O4880  1  0.04973540  0.39014620  0.19497460  1
  O  O4881  1  0.04973540  0.39014620  0.39497460  1
  O  O4882  1  0.04973540  0.39014620  0.59497460  1
  O  O4883  1  0.04973540  0.39014620  0.79497460  1
  O  O4884  1  0.04973540  0.39014620  0.99497460  1
  O  O4885  1  0.04973540  0.59014620  0.19497460  1
  O  O4886  1  0.04973540  0.59014620  0.39497460  1
  O  O4887  1  0.04973540  0.59014620  0.59497460  1
  O  O4888  1  0.04973540  0.59014620  0.79497460  1
  O  O4889  1  0.04973540  0.59014620  0.99497460  1
  O  O4890  1  0.04973540  0.79014620  0.19497460  1
  O  O4891  1  0.04973540  0.79014620  0.39497460  1
  O  O4892  1  0.04973540  0.79014620  0.59497460  1
  O  O4893  1  0.04973540  0.79014620  0.79497460  1
  O  O4894  1  0.04973540  0.79014620  0.99497460  1
  O  O4895  1  0.04973540  0.99014620  0.19497460  1
  O  O4896  1  0.04973540  0.99014620  0.39497460  1
  O  O4897  1  0.04973540  0.99014620  0.59497460  1
  O  O4898  1  0.04973540  0.99014620  0.79497460  1
  O  O4899  1  0.04973540  0.99014620  0.99497460  1
  O  O4900  1  0.24973540  0.19014620  0.19497460  1
  O  O4901  1  0.24973540  0.19014620  0.39497460  1
  O  O4902  1  0.24973540  0.19014620  0.59497460  1
  O  O4903  1  0.24973540  0.19014620  0.79497460  1
  O  O4904  1  0.24973540  0.19014620  0.99497460  1
  O  O4905  1  0.24973540  0.39014620  0.19497460  1
  O  O4906  1  0.24973540  0.39014620  0.39497460  1
  O  O4907  1  0.24973540  0.39014620  0.59497460  1
  O  O4908  1  0.24973540  0.39014620  0.79497460  1
  O  O4909  1  0.24973540  0.39014620  0.99497460  1
  O  O4910  1  0.24973540  0.59014620  0.19497460  1
  O  O4911  1  0.24973540  0.59014620  0.39497460  1
  O  O4912  1  0.24973540  0.59014620  0.59497460  1
  O  O4913  1  0.24973540  0.59014620  0.79497460  1
  O  O4914  1  0.24973540  0.59014620  0.99497460  1
  O  O4915  1  0.24973540  0.79014620  0.19497460  1
  O  O4916  1  0.24973540  0.79014620  0.39497460  1
  O  O4917  1  0.24973540  0.79014620  0.59497460  1
  O  O4918  1  0.24973540  0.79014620  0.79497460  1
  O  O4919  1  0.24973540  0.79014620  0.99497460  1
  O  O4920  1  0.24973540  0.99014620  0.19497460  1
  O  O4921  1  0.24973540  0.99014620  0.39497460  1
  O  O4922  1  0.24973540  0.99014620  0.59497460  1
  O  O4923  1  0.24973540  0.99014620  0.79497460  1
  O  O4924  1  0.24973540  0.99014620  0.99497460  1
  O  O4925  1  0.44973540  0.19014620  0.19497460  1
  O  O4926  1  0.44973540  0.19014620  0.39497460  1
  O  O4927  1  0.44973540  0.19014620  0.59497460  1
  O  O4928  1  0.44973540  0.19014620  0.79497460  1
  O  O4929  1  0.44973540  0.19014620  0.99497460  1
  O  O4930  1  0.44973540  0.39014620  0.19497460  1
  O  O4931  1  0.44973540  0.39014620  0.39497460  1
  O  O4932  1  0.44973540  0.39014620  0.59497460  1
  O  O4933  1  0.44973540  0.39014620  0.79497460  1
  O  O4934  1  0.44973540  0.39014620  0.99497460  1
  O  O4935  1  0.44973540  0.59014620  0.19497460  1
  O  O4936  1  0.44973540  0.59014620  0.39497460  1
  O  O4937  1  0.44973540  0.59014620  0.59497460  1
  O  O4938  1  0.44973540  0.59014620  0.79497460  1
  O  O4939  1  0.44973540  0.59014620  0.99497460  1
  O  O4940  1  0.44973540  0.79014620  0.19497460  1
  O  O4941  1  0.44973540  0.79014620  0.39497460  1
  O  O4942  1  0.44973540  0.79014620  0.59497460  1
  O  O4943  1  0.44973540  0.79014620  0.79497460  1
  O  O4944  1  0.44973540  0.79014620  0.99497460  1
  O  O4945  1  0.44973540  0.99014620  0.19497460  1
  O  O4946  1  0.44973540  0.99014620  0.39497460  1
  O  O4947  1  0.44973540  0.99014620  0.59497460  1
  O  O4948  1  0.44973540  0.99014620  0.79497460  1
  O  O4949  1  0.44973540  0.99014620  0.99497460  1
  O  O4950  1  0.64973540  0.19014620  0.19497460  1
  O  O4951  1  0.64973540  0.19014620  0.39497460  1
  O  O4952  1  0.64973540  0.19014620  0.59497460  1
  O  O4953  1  0.64973540  0.19014620  0.79497460  1
  O  O4954  1  0.64973540  0.19014620  0.99497460  1
  O  O4955  1  0.64973540  0.39014620  0.19497460  1
  O  O4956  1  0.64973540  0.39014620  0.39497460  1
  O  O4957  1  0.64973540  0.39014620  0.59497460  1
  O  O4958  1  0.64973540  0.39014620  0.79497460  1
  O  O4959  1  0.64973540  0.39014620  0.99497460  1
  O  O4960  1  0.64973540  0.59014620  0.19497460  1
  O  O4961  1  0.64973540  0.59014620  0.39497460  1
  O  O4962  1  0.64973540  0.59014620  0.59497460  1
  O  O4963  1  0.64973540  0.59014620  0.79497460  1
  O  O4964  1  0.64973540  0.59014620  0.99497460  1
  O  O4965  1  0.64973540  0.79014620  0.19497460  1
  O  O4966  1  0.64973540  0.79014620  0.39497460  1
  O  O4967  1  0.64973540  0.79014620  0.59497460  1
  O  O4968  1  0.64973540  0.79014620  0.79497460  1
  O  O4969  1  0.64973540  0.79014620  0.99497460  1
  O  O4970  1  0.64973540  0.99014620  0.19497460  1
  O  O4971  1  0.64973540  0.99014620  0.39497460  1
  O  O4972  1  0.64973540  0.99014620  0.59497460  1
  O  O4973  1  0.64973540  0.99014620  0.79497460  1
  O  O4974  1  0.64973540  0.99014620  0.99497460  1
  O  O4975  1  0.84973540  0.19014620  0.19497460  1
  O  O4976  1  0.84973540  0.19014620  0.39497460  1
  O  O4977  1  0.84973540  0.19014620  0.59497460  1
  O  O4978  1  0.84973540  0.19014620  0.79497460  1
  O  O4979  1  0.84973540  0.19014620  0.99497460  1
  O  O4980  1  0.84973540  0.39014620  0.19497460  1
  O  O4981  1  0.84973540  0.39014620  0.39497460  1
  O  O4982  1  0.84973540  0.39014620  0.59497460  1
  O  O4983  1  0.84973540  0.39014620  0.79497460  1
  O  O4984  1  0.84973540  0.39014620  0.99497460  1
  O  O4985  1  0.84973540  0.59014620  0.19497460  1
  O  O4986  1  0.84973540  0.59014620  0.39497460  1
  O  O4987  1  0.84973540  0.59014620  0.59497460  1
  O  O4988  1  0.84973540  0.59014620  0.79497460  1
  O  O4989  1  0.84973540  0.59014620  0.99497460  1
  O  O4990  1  0.84973540  0.79014620  0.19497460  1
  O  O4991  1  0.84973540  0.79014620  0.39497460  1
  O  O4992  1  0.84973540  0.79014620  0.59497460  1
  O  O4993  1  0.84973540  0.79014620  0.79497460  1
  O  O4994  1  0.84973540  0.79014620  0.99497460  1
  O  O4995  1  0.84973540  0.99014620  0.19497460  1
  O  O4996  1  0.84973540  0.99014620  0.39497460  1
  O  O4997  1  0.84973540  0.99014620  0.59497460  1
  O  O4998  1  0.84973540  0.99014620  0.79497460  1
  O  O4999  1  0.84973540  0.99014620  0.99497460  1
  O  O5000  1  0.00835660  0.11805760  0.16964020  1
  O  O5001  1  0.00835660  0.11805760  0.36964020  1
  O  O5002  1  0.00835660  0.11805760  0.56964020  1
  O  O5003  1  0.00835660  0.11805760  0.76964020  1
  O  O5004  1  0.00835660  0.11805760  0.96964020  1
  O  O5005  1  0.00835660  0.31805760  0.16964020  1
  O  O5006  1  0.00835660  0.31805760  0.36964020  1
  O  O5007  1  0.00835660  0.31805760  0.56964020  1
  O  O5008  1  0.00835660  0.31805760  0.76964020  1
  O  O5009  1  0.00835660  0.31805760  0.96964020  1
  O  O5010  1  0.00835660  0.51805760  0.16964020  1
  O  O5011  1  0.00835660  0.51805760  0.36964020  1
  O  O5012  1  0.00835660  0.51805760  0.56964020  1
  O  O5013  1  0.00835660  0.51805760  0.76964020  1
  O  O5014  1  0.00835660  0.51805760  0.96964020  1
  O  O5015  1  0.00835660  0.71805760  0.16964020  1
  O  O5016  1  0.00835660  0.71805760  0.36964020  1
  O  O5017  1  0.00835660  0.71805760  0.56964020  1
  O  O5018  1  0.00835660  0.71805760  0.76964020  1
  O  O5019  1  0.00835660  0.71805760  0.96964020  1
  O  O5020  1  0.00835660  0.91805760  0.16964020  1
  O  O5021  1  0.00835660  0.91805760  0.36964020  1
  O  O5022  1  0.00835660  0.91805760  0.56964020  1
  O  O5023  1  0.00835660  0.91805760  0.76964020  1
  O  O5024  1  0.00835660  0.91805760  0.96964020  1
  O  O5025  1  0.20835660  0.11805760  0.16964020  1
  O  O5026  1  0.20835660  0.11805760  0.36964020  1
  O  O5027  1  0.20835660  0.11805760  0.56964020  1
  O  O5028  1  0.20835660  0.11805760  0.76964020  1
  O  O5029  1  0.20835660  0.11805760  0.96964020  1
  O  O5030  1  0.20835660  0.31805760  0.16964020  1
  O  O5031  1  0.20835660  0.31805760  0.36964020  1
  O  O5032  1  0.20835660  0.31805760  0.56964020  1
  O  O5033  1  0.20835660  0.31805760  0.76964020  1
  O  O5034  1  0.20835660  0.31805760  0.96964020  1
  O  O5035  1  0.20835660  0.51805760  0.16964020  1
  O  O5036  1  0.20835660  0.51805760  0.36964020  1
  O  O5037  1  0.20835660  0.51805760  0.56964020  1
  O  O5038  1  0.20835660  0.51805760  0.76964020  1
  O  O5039  1  0.20835660  0.51805760  0.96964020  1
  O  O5040  1  0.20835660  0.71805760  0.16964020  1
  O  O5041  1  0.20835660  0.71805760  0.36964020  1
  O  O5042  1  0.20835660  0.71805760  0.56964020  1
  O  O5043  1  0.20835660  0.71805760  0.76964020  1
  O  O5044  1  0.20835660  0.71805760  0.96964020  1
  O  O5045  1  0.20835660  0.91805760  0.16964020  1
  O  O5046  1  0.20835660  0.91805760  0.36964020  1
  O  O5047  1  0.20835660  0.91805760  0.56964020  1
  O  O5048  1  0.20835660  0.91805760  0.76964020  1
  O  O5049  1  0.20835660  0.91805760  0.96964020  1
  O  O5050  1  0.40835660  0.11805760  0.16964020  1
  O  O5051  1  0.40835660  0.11805760  0.36964020  1
  O  O5052  1  0.40835660  0.11805760  0.56964020  1
  O  O5053  1  0.40835660  0.11805760  0.76964020  1
  O  O5054  1  0.40835660  0.11805760  0.96964020  1
  O  O5055  1  0.40835660  0.31805760  0.16964020  1
  O  O5056  1  0.40835660  0.31805760  0.36964020  1
  O  O5057  1  0.40835660  0.31805760  0.56964020  1
  O  O5058  1  0.40835660  0.31805760  0.76964020  1
  O  O5059  1  0.40835660  0.31805760  0.96964020  1
  O  O5060  1  0.40835660  0.51805760  0.16964020  1
  O  O5061  1  0.40835660  0.51805760  0.36964020  1
  O  O5062  1  0.40835660  0.51805760  0.56964020  1
  O  O5063  1  0.40835660  0.51805760  0.76964020  1
  O  O5064  1  0.40835660  0.51805760  0.96964020  1
  O  O5065  1  0.40835660  0.71805760  0.16964020  1
  O  O5066  1  0.40835660  0.71805760  0.36964020  1
  O  O5067  1  0.40835660  0.71805760  0.56964020  1
  O  O5068  1  0.40835660  0.71805760  0.76964020  1
  O  O5069  1  0.40835660  0.71805760  0.96964020  1
  O  O5070  1  0.40835660  0.91805760  0.16964020  1
  O  O5071  1  0.40835660  0.91805760  0.36964020  1
  O  O5072  1  0.40835660  0.91805760  0.56964020  1
  O  O5073  1  0.40835660  0.91805760  0.76964020  1
  O  O5074  1  0.40835660  0.91805760  0.96964020  1
  O  O5075  1  0.60835660  0.11805760  0.16964020  1
  O  O5076  1  0.60835660  0.11805760  0.36964020  1
  O  O5077  1  0.60835660  0.11805760  0.56964020  1
  O  O5078  1  0.60835660  0.11805760  0.76964020  1
  O  O5079  1  0.60835660  0.11805760  0.96964020  1
  O  O5080  1  0.60835660  0.31805760  0.16964020  1
  O  O5081  1  0.60835660  0.31805760  0.36964020  1
  O  O5082  1  0.60835660  0.31805760  0.56964020  1
  O  O5083  1  0.60835660  0.31805760  0.76964020  1
  O  O5084  1  0.60835660  0.31805760  0.96964020  1
  O  O5085  1  0.60835660  0.51805760  0.16964020  1
  O  O5086  1  0.60835660  0.51805760  0.36964020  1
  O  O5087  1  0.60835660  0.51805760  0.56964020  1
  O  O5088  1  0.60835660  0.51805760  0.76964020  1
  O  O5089  1  0.60835660  0.51805760  0.96964020  1
  O  O5090  1  0.60835660  0.71805760  0.16964020  1
  O  O5091  1  0.60835660  0.71805760  0.36964020  1
  O  O5092  1  0.60835660  0.71805760  0.56964020  1
  O  O5093  1  0.60835660  0.71805760  0.76964020  1
  O  O5094  1  0.60835660  0.71805760  0.96964020  1
  O  O5095  1  0.60835660  0.91805760  0.16964020  1
  O  O5096  1  0.60835660  0.91805760  0.36964020  1
  O  O5097  1  0.60835660  0.91805760  0.56964020  1
  O  O5098  1  0.60835660  0.91805760  0.76964020  1
  O  O5099  1  0.60835660  0.91805760  0.96964020  1
  O  O5100  1  0.80835660  0.11805760  0.16964020  1
  O  O5101  1  0.80835660  0.11805760  0.36964020  1
  O  O5102  1  0.80835660  0.11805760  0.56964020  1
  O  O5103  1  0.80835660  0.11805760  0.76964020  1
  O  O5104  1  0.80835660  0.11805760  0.96964020  1
  O  O5105  1  0.80835660  0.31805760  0.16964020  1
  O  O5106  1  0.80835660  0.31805760  0.36964020  1
  O  O5107  1  0.80835660  0.31805760  0.56964020  1
  O  O5108  1  0.80835660  0.31805760  0.76964020  1
  O  O5109  1  0.80835660  0.31805760  0.96964020  1
  O  O5110  1  0.80835660  0.51805760  0.16964020  1
  O  O5111  1  0.80835660  0.51805760  0.36964020  1
  O  O5112  1  0.80835660  0.51805760  0.56964020  1
  O  O5113  1  0.80835660  0.51805760  0.76964020  1
  O  O5114  1  0.80835660  0.51805760  0.96964020  1
  O  O5115  1  0.80835660  0.71805760  0.16964020  1
  O  O5116  1  0.80835660  0.71805760  0.36964020  1
  O  O5117  1  0.80835660  0.71805760  0.56964020  1
  O  O5118  1  0.80835660  0.71805760  0.76964020  1
  O  O5119  1  0.80835660  0.71805760  0.96964020  1
  O  O5120  1  0.80835660  0.91805760  0.16964020  1
  O  O5121  1  0.80835660  0.91805760  0.36964020  1
  O  O5122  1  0.80835660  0.91805760  0.56964020  1
  O  O5123  1  0.80835660  0.91805760  0.76964020  1
  O  O5124  1  0.80835660  0.91805760  0.96964020  1
  O  O5125  1  0.01952140  0.16787520  0.11450340  1
  O  O5126  1  0.01952140  0.16787520  0.31450340  1
  O  O5127  1  0.01952140  0.16787520  0.51450340  1
  O  O5128  1  0.01952140  0.16787520  0.71450340  1
  O  O5129  1  0.01952140  0.16787520  0.91450340  1
  O  O5130  1  0.01952140  0.36787520  0.11450340  1
  O  O5131  1  0.01952140  0.36787520  0.31450340  1
  O  O5132  1  0.01952140  0.36787520  0.51450340  1
  O  O5133  1  0.01952140  0.36787520  0.71450340  1
  O  O5134  1  0.01952140  0.36787520  0.91450340  1
  O  O5135  1  0.01952140  0.56787520  0.11450340  1
  O  O5136  1  0.01952140  0.56787520  0.31450340  1
  O  O5137  1  0.01952140  0.56787520  0.51450340  1
  O  O5138  1  0.01952140  0.56787520  0.71450340  1
  O  O5139  1  0.01952140  0.56787520  0.91450340  1
  O  O5140  1  0.01952140  0.76787520  0.11450340  1
  O  O5141  1  0.01952140  0.76787520  0.31450340  1
  O  O5142  1  0.01952140  0.76787520  0.51450340  1
  O  O5143  1  0.01952140  0.76787520  0.71450340  1
  O  O5144  1  0.01952140  0.76787520  0.91450340  1
  O  O5145  1  0.01952140  0.96787520  0.11450340  1
  O  O5146  1  0.01952140  0.96787520  0.31450340  1
  O  O5147  1  0.01952140  0.96787520  0.51450340  1
  O  O5148  1  0.01952140  0.96787520  0.71450340  1
  O  O5149  1  0.01952140  0.96787520  0.91450340  1
  O  O5150  1  0.21952140  0.16787520  0.11450340  1
  O  O5151  1  0.21952140  0.16787520  0.31450340  1
  O  O5152  1  0.21952140  0.16787520  0.51450340  1
  O  O5153  1  0.21952140  0.16787520  0.71450340  1
  O  O5154  1  0.21952140  0.16787520  0.91450340  1
  O  O5155  1  0.21952140  0.36787520  0.11450340  1
  O  O5156  1  0.21952140  0.36787520  0.31450340  1
  O  O5157  1  0.21952140  0.36787520  0.51450340  1
  O  O5158  1  0.21952140  0.36787520  0.71450340  1
  O  O5159  1  0.21952140  0.36787520  0.91450340  1
  O  O5160  1  0.21952140  0.56787520  0.11450340  1
  O  O5161  1  0.21952140  0.56787520  0.31450340  1
  O  O5162  1  0.21952140  0.56787520  0.51450340  1
  O  O5163  1  0.21952140  0.56787520  0.71450340  1
  O  O5164  1  0.21952140  0.56787520  0.91450340  1
  O  O5165  1  0.21952140  0.76787520  0.11450340  1
  O  O5166  1  0.21952140  0.76787520  0.31450340  1
  O  O5167  1  0.21952140  0.76787520  0.51450340  1
  O  O5168  1  0.21952140  0.76787520  0.71450340  1
  O  O5169  1  0.21952140  0.76787520  0.91450340  1
  O  O5170  1  0.21952140  0.96787520  0.11450340  1
  O  O5171  1  0.21952140  0.96787520  0.31450340  1
  O  O5172  1  0.21952140  0.96787520  0.51450340  1
  O  O5173  1  0.21952140  0.96787520  0.71450340  1
  O  O5174  1  0.21952140  0.96787520  0.91450340  1
  O  O5175  1  0.41952140  0.16787520  0.11450340  1
  O  O5176  1  0.41952140  0.16787520  0.31450340  1
  O  O5177  1  0.41952140  0.16787520  0.51450340  1
  O  O5178  1  0.41952140  0.16787520  0.71450340  1
  O  O5179  1  0.41952140  0.16787520  0.91450340  1
  O  O5180  1  0.41952140  0.36787520  0.11450340  1
  O  O5181  1  0.41952140  0.36787520  0.31450340  1
  O  O5182  1  0.41952140  0.36787520  0.51450340  1
  O  O5183  1  0.41952140  0.36787520  0.71450340  1
  O  O5184  1  0.41952140  0.36787520  0.91450340  1
  O  O5185  1  0.41952140  0.56787520  0.11450340  1
  O  O5186  1  0.41952140  0.56787520  0.31450340  1
  O  O5187  1  0.41952140  0.56787520  0.51450340  1
  O  O5188  1  0.41952140  0.56787520  0.71450340  1
  O  O5189  1  0.41952140  0.56787520  0.91450340  1
  O  O5190  1  0.41952140  0.76787520  0.11450340  1
  O  O5191  1  0.41952140  0.76787520  0.31450340  1
  O  O5192  1  0.41952140  0.76787520  0.51450340  1
  O  O5193  1  0.41952140  0.76787520  0.71450340  1
  O  O5194  1  0.41952140  0.76787520  0.91450340  1
  O  O5195  1  0.41952140  0.96787520  0.11450340  1
  O  O5196  1  0.41952140  0.96787520  0.31450340  1
  O  O5197  1  0.41952140  0.96787520  0.51450340  1
  O  O5198  1  0.41952140  0.96787520  0.71450340  1
  O  O5199  1  0.41952140  0.96787520  0.91450340  1
  O  O5200  1  0.61952140  0.16787520  0.11450340  1
  O  O5201  1  0.61952140  0.16787520  0.31450340  1
  O  O5202  1  0.61952140  0.16787520  0.51450340  1
  O  O5203  1  0.61952140  0.16787520  0.71450340  1
  O  O5204  1  0.61952140  0.16787520  0.91450340  1
  O  O5205  1  0.61952140  0.36787520  0.11450340  1
  O  O5206  1  0.61952140  0.36787520  0.31450340  1
  O  O5207  1  0.61952140  0.36787520  0.51450340  1
  O  O5208  1  0.61952140  0.36787520  0.71450340  1
  O  O5209  1  0.61952140  0.36787520  0.91450340  1
  O  O5210  1  0.61952140  0.56787520  0.11450340  1
  O  O5211  1  0.61952140  0.56787520  0.31450340  1
  O  O5212  1  0.61952140  0.56787520  0.51450340  1
  O  O5213  1  0.61952140  0.56787520  0.71450340  1
  O  O5214  1  0.61952140  0.56787520  0.91450340  1
  O  O5215  1  0.61952140  0.76787520  0.11450340  1
  O  O5216  1  0.61952140  0.76787520  0.31450340  1
  O  O5217  1  0.61952140  0.76787520  0.51450340  1
  O  O5218  1  0.61952140  0.76787520  0.71450340  1
  O  O5219  1  0.61952140  0.76787520  0.91450340  1
  O  O5220  1  0.61952140  0.96787520  0.11450340  1
  O  O5221  1  0.61952140  0.96787520  0.31450340  1
  O  O5222  1  0.61952140  0.96787520  0.51450340  1
  O  O5223  1  0.61952140  0.96787520  0.71450340  1
  O  O5224  1  0.61952140  0.96787520  0.91450340  1
  O  O5225  1  0.81952140  0.16787520  0.11450340  1
  O  O5226  1  0.81952140  0.16787520  0.31450340  1
  O  O5227  1  0.81952140  0.16787520  0.51450340  1
  O  O5228  1  0.81952140  0.16787520  0.71450340  1
  O  O5229  1  0.81952140  0.16787520  0.91450340  1
  O  O5230  1  0.81952140  0.36787520  0.11450340  1
  O  O5231  1  0.81952140  0.36787520  0.31450340  1
  O  O5232  1  0.81952140  0.36787520  0.51450340  1
  O  O5233  1  0.81952140  0.36787520  0.71450340  1
  O  O5234  1  0.81952140  0.36787520  0.91450340  1
  O  O5235  1  0.81952140  0.56787520  0.11450340  1
  O  O5236  1  0.81952140  0.56787520  0.31450340  1
  O  O5237  1  0.81952140  0.56787520  0.51450340  1
  O  O5238  1  0.81952140  0.56787520  0.71450340  1
  O  O5239  1  0.81952140  0.56787520  0.91450340  1
  O  O5240  1  0.81952140  0.76787520  0.11450340  1
  O  O5241  1  0.81952140  0.76787520  0.31450340  1
  O  O5242  1  0.81952140  0.76787520  0.51450340  1
  O  O5243  1  0.81952140  0.76787520  0.71450340  1
  O  O5244  1  0.81952140  0.76787520  0.91450340  1
  O  O5245  1  0.81952140  0.96787520  0.11450340  1
  O  O5246  1  0.81952140  0.96787520  0.31450340  1
  O  O5247  1  0.81952140  0.96787520  0.51450340  1
  O  O5248  1  0.81952140  0.96787520  0.71450340  1
  O  O5249  1  0.81952140  0.96787520  0.91450340  1
