# generated using pymatgen
data_Li2Ca(SiN2)2
_symmetry_space_group_name_H-M   'P 1'
_cell_length_a   42.55308508
_cell_length_b   42.55308508
_cell_length_c   42.55308508
_cell_angle_alpha   90.00000000
_cell_angle_beta   90.00000000
_cell_angle_gamma   90.00000000
_symmetry_Int_Tables_number   1
_chemical_formula_structural   Li2Ca(SiN2)2
_chemical_formula_sum   'Li1536 Ca768 Si1536 N3072'
_cell_volume   77053.63922512
_cell_formula_units_Z   768
loop_
 _symmetry_equiv_pos_site_id
 _symmetry_equiv_pos_as_xyz
  1  'x, y, z'
loop_
 _atom_site_type_symbol
 _atom_site_label
 _atom_site_symmetry_multiplicity
 _atom_site_fract_x
 _atom_site_fract_y
 _atom_site_fract_z
 _atom_site_occupancy
  Li  Li0  1  0.09657066  0.18045569  0.23809093  1
  Li  Li1  1  0.09657066  0.18045569  0.48809093  1
  Li  Li2  1  0.09657066  0.18045569  0.73809093  1
  Li  Li3  1  0.09657066  0.18045569  0.98809093  1
  Li  Li4  1  0.09657066  0.43045570  0.23809093  1
  Li  Li5  1  0.09657066  0.43045570  0.48809093  1
  Li  Li6  1  0.09657066  0.43045570  0.73809093  1
  Li  Li7  1  0.09657066  0.43045570  0.98809093  1
  Li  Li8  1  0.09657066  0.68045570  0.23809093  1
  Li  Li9  1  0.09657066  0.68045570  0.48809093  1
  Li  Li10  1  0.09657066  0.68045570  0.73809093  1
  Li  Li11  1  0.09657066  0.68045570  0.98809093  1
  Li  Li12  1  0.09657066  0.93045570  0.23809093  1
  Li  Li13  1  0.09657066  0.93045570  0.48809093  1
  Li  Li14  1  0.09657066  0.93045570  0.73809093  1
  Li  Li15  1  0.09657066  0.93045570  0.98809093  1
  Li  Li16  1  0.34657066  0.18045569  0.23809093  1
  Li  Li17  1  0.34657066  0.18045569  0.48809093  1
  Li  Li18  1  0.34657066  0.18045569  0.73809093  1
  Li  Li19  1  0.34657066  0.18045569  0.98809093  1
  Li  Li20  1  0.34657066  0.43045570  0.23809093  1
  Li  Li21  1  0.34657066  0.43045570  0.48809093  1
  Li  Li22  1  0.34657066  0.43045570  0.73809093  1
  Li  Li23  1  0.34657066  0.43045570  0.98809093  1
  Li  Li24  1  0.34657066  0.68045570  0.23809093  1
  Li  Li25  1  0.34657066  0.68045570  0.48809093  1
  Li  Li26  1  0.34657066  0.68045570  0.73809093  1
  Li  Li27  1  0.34657066  0.68045570  0.98809093  1
  Li  Li28  1  0.34657066  0.93045570  0.23809093  1
  Li  Li29  1  0.34657066  0.93045570  0.48809093  1
  Li  Li30  1  0.34657066  0.93045570  0.73809093  1
  Li  Li31  1  0.34657066  0.93045570  0.98809093  1
  Li  Li32  1  0.59657066  0.18045569  0.23809093  1
  Li  Li33  1  0.59657066  0.18045569  0.48809093  1
  Li  Li34  1  0.59657066  0.18045569  0.73809093  1
  Li  Li35  1  0.59657066  0.18045569  0.98809093  1
  Li  Li36  1  0.59657066  0.43045570  0.23809093  1
  Li  Li37  1  0.59657066  0.43045570  0.48809093  1
  Li  Li38  1  0.59657066  0.43045570  0.73809093  1
  Li  Li39  1  0.59657066  0.43045570  0.98809093  1
  Li  Li40  1  0.59657066  0.68045570  0.23809093  1
  Li  Li41  1  0.59657066  0.68045570  0.48809093  1
  Li  Li42  1  0.59657066  0.68045570  0.73809093  1
  Li  Li43  1  0.59657066  0.68045570  0.98809093  1
  Li  Li44  1  0.59657066  0.93045570  0.23809093  1
  Li  Li45  1  0.59657066  0.93045570  0.48809093  1
  Li  Li46  1  0.59657066  0.93045570  0.73809093  1
  Li  Li47  1  0.59657066  0.93045570  0.98809093  1
  Li  Li48  1  0.84657067  0.18045569  0.23809093  1
  Li  Li49  1  0.84657067  0.18045569  0.48809093  1
  Li  Li50  1  0.84657067  0.18045569  0.73809093  1
  Li  Li51  1  0.84657067  0.18045569  0.98809093  1
  Li  Li52  1  0.84657067  0.43045570  0.23809093  1
  Li  Li53  1  0.84657067  0.43045570  0.48809093  1
  Li  Li54  1  0.84657067  0.43045570  0.73809093  1
  Li  Li55  1  0.84657067  0.43045570  0.98809093  1
  Li  Li56  1  0.84657067  0.68045570  0.23809093  1
  Li  Li57  1  0.84657067  0.68045570  0.48809093  1
  Li  Li58  1  0.84657067  0.68045570  0.73809093  1
  Li  Li59  1  0.84657067  0.68045570  0.98809093  1
  Li  Li60  1  0.84657067  0.93045570  0.23809093  1
  Li  Li61  1  0.84657067  0.93045570  0.48809093  1
  Li  Li62  1  0.84657067  0.93045570  0.73809093  1
  Li  Li63  1  0.84657067  0.93045570  0.98809093  1
  Li  Li64  1  0.15342934  0.05545569  0.13690907  1
  Li  Li65  1  0.15342934  0.05545569  0.38690907  1
  Li  Li66  1  0.15342934  0.05545569  0.63690907  1
  Li  Li67  1  0.15342934  0.05545569  0.88690907  1
  Li  Li68  1  0.15342934  0.30545569  0.13690907  1
  Li  Li69  1  0.15342934  0.30545569  0.38690907  1
  Li  Li70  1  0.15342934  0.30545569  0.63690907  1
  Li  Li71  1  0.15342934  0.30545569  0.88690907  1
  Li  Li72  1  0.15342934  0.55545570  0.13690907  1
  Li  Li73  1  0.15342934  0.55545570  0.38690907  1
  Li  Li74  1  0.15342934  0.55545570  0.63690907  1
  Li  Li75  1  0.15342934  0.55545570  0.88690907  1
  Li  Li76  1  0.15342934  0.80545570  0.13690907  1
  Li  Li77  1  0.15342934  0.80545570  0.38690907  1
  Li  Li78  1  0.15342934  0.80545570  0.63690907  1
  Li  Li79  1  0.15342934  0.80545570  0.88690907  1
  Li  Li80  1  0.40342934  0.05545569  0.13690907  1
  Li  Li81  1  0.40342934  0.05545569  0.38690907  1
  Li  Li82  1  0.40342934  0.05545569  0.63690907  1
  Li  Li83  1  0.40342934  0.05545569  0.88690907  1
  Li  Li84  1  0.40342934  0.30545569  0.13690907  1
  Li  Li85  1  0.40342934  0.30545569  0.38690907  1
  Li  Li86  1  0.40342934  0.30545569  0.63690907  1
  Li  Li87  1  0.40342934  0.30545569  0.88690907  1
  Li  Li88  1  0.40342934  0.55545570  0.13690907  1
  Li  Li89  1  0.40342934  0.55545570  0.38690907  1
  Li  Li90  1  0.40342934  0.55545570  0.63690907  1
  Li  Li91  1  0.40342934  0.55545570  0.88690907  1
  Li  Li92  1  0.40342934  0.80545570  0.13690907  1
  Li  Li93  1  0.40342934  0.80545570  0.38690907  1
  Li  Li94  1  0.40342934  0.80545570  0.63690907  1
  Li  Li95  1  0.40342934  0.80545570  0.88690907  1
  Li  Li96  1  0.65342934  0.05545569  0.13690907  1
  Li  Li97  1  0.65342934  0.05545569  0.38690907  1
  Li  Li98  1  0.65342934  0.05545569  0.63690907  1
  Li  Li99  1  0.65342934  0.05545569  0.88690907  1
  Li  Li100  1  0.65342934  0.30545569  0.13690907  1
  Li  Li101  1  0.65342934  0.30545569  0.38690907  1
  Li  Li102  1  0.65342934  0.30545569  0.63690907  1
  Li  Li103  1  0.65342934  0.30545569  0.88690907  1
  Li  Li104  1  0.65342934  0.55545570  0.13690907  1
  Li  Li105  1  0.65342934  0.55545570  0.38690907  1
  Li  Li106  1  0.65342934  0.55545570  0.63690907  1
  Li  Li107  1  0.65342934  0.55545570  0.88690907  1
  Li  Li108  1  0.65342934  0.80545570  0.13690907  1
  Li  Li109  1  0.65342934  0.80545570  0.38690907  1
  Li  Li110  1  0.65342934  0.80545570  0.63690907  1
  Li  Li111  1  0.65342934  0.80545570  0.88690907  1
  Li  Li112  1  0.90342934  0.05545569  0.13690907  1
  Li  Li113  1  0.90342934  0.05545569  0.38690907  1
  Li  Li114  1  0.90342934  0.05545569  0.63690907  1
  Li  Li115  1  0.90342934  0.05545569  0.88690907  1
  Li  Li116  1  0.90342934  0.30545569  0.13690907  1
  Li  Li117  1  0.90342934  0.30545569  0.38690907  1
  Li  Li118  1  0.90342934  0.30545569  0.63690907  1
  Li  Li119  1  0.90342934  0.30545569  0.88690907  1
  Li  Li120  1  0.90342934  0.55545570  0.13690907  1
  Li  Li121  1  0.90342934  0.55545570  0.38690907  1
  Li  Li122  1  0.90342934  0.55545570  0.63690907  1
  Li  Li123  1  0.90342934  0.55545570  0.88690907  1
  Li  Li124  1  0.90342934  0.80545570  0.13690907  1
  Li  Li125  1  0.90342934  0.80545570  0.38690907  1
  Li  Li126  1  0.90342934  0.80545570  0.63690907  1
  Li  Li127  1  0.90342934  0.80545570  0.88690907  1
  Li  Li128  1  0.02842933  0.06954431  0.11309093  1
  Li  Li129  1  0.02842933  0.06954431  0.36309093  1
  Li  Li130  1  0.02842933  0.06954431  0.61309093  1
  Li  Li131  1  0.02842933  0.06954431  0.86309093  1
  Li  Li132  1  0.02842933  0.31954430  0.11309093  1
  Li  Li133  1  0.02842933  0.31954430  0.36309093  1
  Li  Li134  1  0.02842933  0.31954430  0.61309093  1
  Li  Li135  1  0.02842933  0.31954430  0.86309093  1
  Li  Li136  1  0.02842933  0.56954430  0.11309093  1
  Li  Li137  1  0.02842933  0.56954430  0.36309093  1
  Li  Li138  1  0.02842933  0.56954430  0.61309093  1
  Li  Li139  1  0.02842933  0.56954430  0.86309093  1
  Li  Li140  1  0.02842933  0.81954431  0.11309093  1
  Li  Li141  1  0.02842933  0.81954431  0.36309093  1
  Li  Li142  1  0.02842933  0.81954431  0.61309093  1
  Li  Li143  1  0.02842933  0.81954431  0.86309093  1
  Li  Li144  1  0.27842934  0.06954431  0.11309093  1
  Li  Li145  1  0.27842934  0.06954431  0.36309093  1
  Li  Li146  1  0.27842934  0.06954431  0.61309093  1
  Li  Li147  1  0.27842934  0.06954431  0.86309093  1
  Li  Li148  1  0.27842934  0.31954430  0.11309093  1
  Li  Li149  1  0.27842934  0.31954430  0.36309093  1
  Li  Li150  1  0.27842934  0.31954430  0.61309093  1
  Li  Li151  1  0.27842934  0.31954430  0.86309093  1
  Li  Li152  1  0.27842934  0.56954430  0.11309093  1
  Li  Li153  1  0.27842934  0.56954430  0.36309093  1
  Li  Li154  1  0.27842934  0.56954430  0.61309093  1
  Li  Li155  1  0.27842934  0.56954430  0.86309093  1
  Li  Li156  1  0.27842934  0.81954431  0.11309093  1
  Li  Li157  1  0.27842934  0.81954431  0.36309093  1
  Li  Li158  1  0.27842934  0.81954431  0.61309093  1
  Li  Li159  1  0.27842934  0.81954431  0.86309093  1
  Li  Li160  1  0.52842934  0.06954431  0.11309093  1
  Li  Li161  1  0.52842934  0.06954431  0.36309093  1
  Li  Li162  1  0.52842934  0.06954431  0.61309093  1
  Li  Li163  1  0.52842934  0.06954431  0.86309093  1
  Li  Li164  1  0.52842934  0.31954430  0.11309093  1
  Li  Li165  1  0.52842934  0.31954430  0.36309093  1
  Li  Li166  1  0.52842934  0.31954430  0.61309093  1
  Li  Li167  1  0.52842934  0.31954430  0.86309093  1
  Li  Li168  1  0.52842934  0.56954430  0.11309093  1
  Li  Li169  1  0.52842934  0.56954430  0.36309093  1
  Li  Li170  1  0.52842934  0.56954430  0.61309093  1
  Li  Li171  1  0.52842934  0.56954430  0.86309093  1
  Li  Li172  1  0.52842934  0.81954431  0.11309093  1
  Li  Li173  1  0.52842934  0.81954431  0.36309093  1
  Li  Li174  1  0.52842934  0.81954431  0.61309093  1
  Li  Li175  1  0.52842934  0.81954431  0.86309093  1
  Li  Li176  1  0.77842934  0.06954431  0.11309093  1
  Li  Li177  1  0.77842934  0.06954431  0.36309093  1
  Li  Li178  1  0.77842934  0.06954431  0.61309093  1
  Li  Li179  1  0.77842934  0.06954431  0.86309093  1
  Li  Li180  1  0.77842934  0.31954430  0.11309093  1
  Li  Li181  1  0.77842934  0.31954430  0.36309093  1
  Li  Li182  1  0.77842934  0.31954430  0.61309093  1
  Li  Li183  1  0.77842934  0.31954430  0.86309093  1
  Li  Li184  1  0.77842934  0.56954430  0.11309093  1
  Li  Li185  1  0.77842934  0.56954430  0.36309093  1
  Li  Li186  1  0.77842934  0.56954430  0.61309093  1
  Li  Li187  1  0.77842934  0.56954430  0.86309093  1
  Li  Li188  1  0.77842934  0.81954431  0.11309093  1
  Li  Li189  1  0.77842934  0.81954431  0.36309093  1
  Li  Li190  1  0.77842934  0.81954431  0.61309093  1
  Li  Li191  1  0.77842934  0.81954431  0.86309093  1
  Li  Li192  1  0.22157067  0.19454430  0.01190907  1
  Li  Li193  1  0.22157067  0.19454430  0.26190907  1
  Li  Li194  1  0.22157067  0.19454430  0.51190907  1
  Li  Li195  1  0.22157067  0.19454430  0.76190907  1
  Li  Li196  1  0.22157067  0.44454430  0.01190907  1
  Li  Li197  1  0.22157067  0.44454430  0.26190907  1
  Li  Li198  1  0.22157067  0.44454430  0.51190907  1
  Li  Li199  1  0.22157067  0.44454430  0.76190907  1
  Li  Li200  1  0.22157067  0.69454430  0.01190907  1
  Li  Li201  1  0.22157067  0.69454430  0.26190907  1
  Li  Li202  1  0.22157067  0.69454430  0.51190907  1
  Li  Li203  1  0.22157067  0.69454430  0.76190907  1
  Li  Li204  1  0.22157067  0.94454430  0.01190907  1
  Li  Li205  1  0.22157067  0.94454430  0.26190907  1
  Li  Li206  1  0.22157067  0.94454430  0.51190907  1
  Li  Li207  1  0.22157067  0.94454430  0.76190907  1
  Li  Li208  1  0.47157066  0.19454430  0.01190907  1
  Li  Li209  1  0.47157066  0.19454430  0.26190907  1
  Li  Li210  1  0.47157066  0.19454430  0.51190907  1
  Li  Li211  1  0.47157066  0.19454430  0.76190907  1
  Li  Li212  1  0.47157066  0.44454430  0.01190907  1
  Li  Li213  1  0.47157066  0.44454430  0.26190907  1
  Li  Li214  1  0.47157066  0.44454430  0.51190907  1
  Li  Li215  1  0.47157066  0.44454430  0.76190907  1
  Li  Li216  1  0.47157066  0.69454430  0.01190907  1
  Li  Li217  1  0.47157066  0.69454430  0.26190907  1
  Li  Li218  1  0.47157066  0.69454430  0.51190907  1
  Li  Li219  1  0.47157066  0.69454430  0.76190907  1
  Li  Li220  1  0.47157066  0.94454430  0.01190907  1
  Li  Li221  1  0.47157066  0.94454430  0.26190907  1
  Li  Li222  1  0.47157066  0.94454430  0.51190907  1
  Li  Li223  1  0.47157066  0.94454430  0.76190907  1
  Li  Li224  1  0.72157066  0.19454430  0.01190907  1
  Li  Li225  1  0.72157066  0.19454430  0.26190907  1
  Li  Li226  1  0.72157066  0.19454430  0.51190907  1
  Li  Li227  1  0.72157066  0.19454430  0.76190907  1
  Li  Li228  1  0.72157066  0.44454430  0.01190907  1
  Li  Li229  1  0.72157066  0.44454430  0.26190907  1
  Li  Li230  1  0.72157066  0.44454430  0.51190907  1
  Li  Li231  1  0.72157066  0.44454430  0.76190907  1
  Li  Li232  1  0.72157066  0.69454430  0.01190907  1
  Li  Li233  1  0.72157066  0.69454430  0.26190907  1
  Li  Li234  1  0.72157066  0.69454430  0.51190907  1
  Li  Li235  1  0.72157066  0.69454430  0.76190907  1
  Li  Li236  1  0.72157066  0.94454430  0.01190907  1
  Li  Li237  1  0.72157066  0.94454430  0.26190907  1
  Li  Li238  1  0.72157066  0.94454430  0.51190907  1
  Li  Li239  1  0.72157066  0.94454430  0.76190907  1
  Li  Li240  1  0.97157066  0.19454430  0.01190907  1
  Li  Li241  1  0.97157066  0.19454430  0.26190907  1
  Li  Li242  1  0.97157066  0.19454430  0.51190907  1
  Li  Li243  1  0.97157066  0.19454430  0.76190907  1
  Li  Li244  1  0.97157066  0.44454430  0.01190907  1
  Li  Li245  1  0.97157066  0.44454430  0.26190907  1
  Li  Li246  1  0.97157066  0.44454430  0.51190907  1
  Li  Li247  1  0.97157066  0.44454430  0.76190907  1
  Li  Li248  1  0.97157066  0.69454430  0.01190907  1
  Li  Li249  1  0.97157066  0.69454430  0.26190907  1
  Li  Li250  1  0.97157066  0.69454430  0.51190907  1
  Li  Li251  1  0.97157066  0.69454430  0.76190907  1
  Li  Li252  1  0.97157066  0.94454430  0.01190907  1
  Li  Li253  1  0.97157066  0.94454430  0.26190907  1
  Li  Li254  1  0.97157066  0.94454430  0.51190907  1
  Li  Li255  1  0.97157066  0.94454430  0.76190907  1
  Li  Li256  1  0.23809093  0.09657066  0.18045569  1
  Li  Li257  1  0.23809093  0.09657066  0.43045570  1
  Li  Li258  1  0.23809093  0.09657066  0.68045570  1
  Li  Li259  1  0.23809093  0.09657066  0.93045570  1
  Li  Li260  1  0.23809093  0.34657066  0.18045569  1
  Li  Li261  1  0.23809093  0.34657066  0.43045570  1
  Li  Li262  1  0.23809093  0.34657066  0.68045570  1
  Li  Li263  1  0.23809093  0.34657066  0.93045570  1
  Li  Li264  1  0.23809093  0.59657066  0.18045569  1
  Li  Li265  1  0.23809093  0.59657066  0.43045570  1
  Li  Li266  1  0.23809093  0.59657066  0.68045570  1
  Li  Li267  1  0.23809093  0.59657066  0.93045570  1
  Li  Li268  1  0.23809093  0.84657067  0.18045569  1
  Li  Li269  1  0.23809093  0.84657067  0.43045570  1
  Li  Li270  1  0.23809093  0.84657067  0.68045570  1
  Li  Li271  1  0.23809093  0.84657067  0.93045570  1
  Li  Li272  1  0.48809093  0.09657066  0.18045569  1
  Li  Li273  1  0.48809093  0.09657066  0.43045570  1
  Li  Li274  1  0.48809093  0.09657066  0.68045570  1
  Li  Li275  1  0.48809093  0.09657066  0.93045570  1
  Li  Li276  1  0.48809093  0.34657066  0.18045569  1
  Li  Li277  1  0.48809093  0.34657066  0.43045570  1
  Li  Li278  1  0.48809093  0.34657066  0.68045570  1
  Li  Li279  1  0.48809093  0.34657066  0.93045570  1
  Li  Li280  1  0.48809093  0.59657066  0.18045569  1
  Li  Li281  1  0.48809093  0.59657066  0.43045570  1
  Li  Li282  1  0.48809093  0.59657066  0.68045570  1
  Li  Li283  1  0.48809093  0.59657066  0.93045570  1
  Li  Li284  1  0.48809093  0.84657067  0.18045569  1
  Li  Li285  1  0.48809093  0.84657067  0.43045570  1
  Li  Li286  1  0.48809093  0.84657067  0.68045570  1
  Li  Li287  1  0.48809093  0.84657067  0.93045570  1
  Li  Li288  1  0.73809093  0.09657066  0.18045569  1
  Li  Li289  1  0.73809093  0.09657066  0.43045570  1
  Li  Li290  1  0.73809093  0.09657066  0.68045570  1
  Li  Li291  1  0.73809093  0.09657066  0.93045570  1
  Li  Li292  1  0.73809093  0.34657066  0.18045569  1
  Li  Li293  1  0.73809093  0.34657066  0.43045570  1
  Li  Li294  1  0.73809093  0.34657066  0.68045570  1
  Li  Li295  1  0.73809093  0.34657066  0.93045570  1
  Li  Li296  1  0.73809093  0.59657066  0.18045569  1
  Li  Li297  1  0.73809093  0.59657066  0.43045570  1
  Li  Li298  1  0.73809093  0.59657066  0.68045570  1
  Li  Li299  1  0.73809093  0.59657066  0.93045570  1
  Li  Li300  1  0.73809093  0.84657067  0.18045569  1
  Li  Li301  1  0.73809093  0.84657067  0.43045570  1
  Li  Li302  1  0.73809093  0.84657067  0.68045570  1
  Li  Li303  1  0.73809093  0.84657067  0.93045570  1
  Li  Li304  1  0.98809093  0.09657066  0.18045569  1
  Li  Li305  1  0.98809093  0.09657066  0.43045570  1
  Li  Li306  1  0.98809093  0.09657066  0.68045570  1
  Li  Li307  1  0.98809093  0.09657066  0.93045570  1
  Li  Li308  1  0.98809093  0.34657066  0.18045569  1
  Li  Li309  1  0.98809093  0.34657066  0.43045570  1
  Li  Li310  1  0.98809093  0.34657066  0.68045570  1
  Li  Li311  1  0.98809093  0.34657066  0.93045570  1
  Li  Li312  1  0.98809093  0.59657066  0.18045569  1
  Li  Li313  1  0.98809093  0.59657066  0.43045570  1
  Li  Li314  1  0.98809093  0.59657066  0.68045570  1
  Li  Li315  1  0.98809093  0.59657066  0.93045570  1
  Li  Li316  1  0.98809093  0.84657067  0.18045569  1
  Li  Li317  1  0.98809093  0.84657067  0.43045570  1
  Li  Li318  1  0.98809093  0.84657067  0.68045570  1
  Li  Li319  1  0.98809093  0.84657067  0.93045570  1
  Li  Li320  1  0.13690907  0.15342934  0.05545569  1
  Li  Li321  1  0.13690907  0.15342934  0.30545569  1
  Li  Li322  1  0.13690907  0.15342934  0.55545570  1
  Li  Li323  1  0.13690907  0.15342934  0.80545570  1
  Li  Li324  1  0.13690907  0.40342934  0.05545569  1
  Li  Li325  1  0.13690907  0.40342934  0.30545569  1
  Li  Li326  1  0.13690907  0.40342934  0.55545570  1
  Li  Li327  1  0.13690907  0.40342934  0.80545570  1
  Li  Li328  1  0.13690907  0.65342934  0.05545569  1
  Li  Li329  1  0.13690907  0.65342934  0.30545569  1
  Li  Li330  1  0.13690907  0.65342934  0.55545570  1
  Li  Li331  1  0.13690907  0.65342934  0.80545570  1
  Li  Li332  1  0.13690907  0.90342934  0.05545569  1
  Li  Li333  1  0.13690907  0.90342934  0.30545569  1
  Li  Li334  1  0.13690907  0.90342934  0.55545570  1
  Li  Li335  1  0.13690907  0.90342934  0.80545570  1
  Li  Li336  1  0.38690907  0.15342934  0.05545569  1
  Li  Li337  1  0.38690907  0.15342934  0.30545569  1
  Li  Li338  1  0.38690907  0.15342934  0.55545570  1
  Li  Li339  1  0.38690907  0.15342934  0.80545570  1
  Li  Li340  1  0.38690907  0.40342934  0.05545569  1
  Li  Li341  1  0.38690907  0.40342934  0.30545569  1
  Li  Li342  1  0.38690907  0.40342934  0.55545570  1
  Li  Li343  1  0.38690907  0.40342934  0.80545570  1
  Li  Li344  1  0.38690907  0.65342934  0.05545569  1
  Li  Li345  1  0.38690907  0.65342934  0.30545569  1
  Li  Li346  1  0.38690907  0.65342934  0.55545570  1
  Li  Li347  1  0.38690907  0.65342934  0.80545570  1
  Li  Li348  1  0.38690907  0.90342934  0.05545569  1
  Li  Li349  1  0.38690907  0.90342934  0.30545569  1
  Li  Li350  1  0.38690907  0.90342934  0.55545570  1
  Li  Li351  1  0.38690907  0.90342934  0.80545570  1
  Li  Li352  1  0.63690907  0.15342934  0.05545569  1
  Li  Li353  1  0.63690907  0.15342934  0.30545569  1
  Li  Li354  1  0.63690907  0.15342934  0.55545570  1
  Li  Li355  1  0.63690907  0.15342934  0.80545570  1
  Li  Li356  1  0.63690907  0.40342934  0.05545569  1
  Li  Li357  1  0.63690907  0.40342934  0.30545569  1
  Li  Li358  1  0.63690907  0.40342934  0.55545570  1
  Li  Li359  1  0.63690907  0.40342934  0.80545570  1
  Li  Li360  1  0.63690907  0.65342934  0.05545569  1
  Li  Li361  1  0.63690907  0.65342934  0.30545569  1
  Li  Li362  1  0.63690907  0.65342934  0.55545570  1
  Li  Li363  1  0.63690907  0.65342934  0.80545570  1
  Li  Li364  1  0.63690907  0.90342934  0.05545569  1
  Li  Li365  1  0.63690907  0.90342934  0.30545569  1
  Li  Li366  1  0.63690907  0.90342934  0.55545570  1
  Li  Li367  1  0.63690907  0.90342934  0.80545570  1
  Li  Li368  1  0.88690907  0.15342934  0.05545569  1
  Li  Li369  1  0.88690907  0.15342934  0.30545569  1
  Li  Li370  1  0.88690907  0.15342934  0.55545570  1
  Li  Li371  1  0.88690907  0.15342934  0.80545570  1
  Li  Li372  1  0.88690907  0.40342934  0.05545569  1
  Li  Li373  1  0.88690907  0.40342934  0.30545569  1
  Li  Li374  1  0.88690907  0.40342934  0.55545570  1
  Li  Li375  1  0.88690907  0.40342934  0.80545570  1
  Li  Li376  1  0.88690907  0.65342934  0.05545569  1
  Li  Li377  1  0.88690907  0.65342934  0.30545569  1
  Li  Li378  1  0.88690907  0.65342934  0.55545570  1
  Li  Li379  1  0.88690907  0.65342934  0.80545570  1
  Li  Li380  1  0.88690907  0.90342934  0.05545569  1
  Li  Li381  1  0.88690907  0.90342934  0.30545569  1
  Li  Li382  1  0.88690907  0.90342934  0.55545570  1
  Li  Li383  1  0.88690907  0.90342934  0.80545570  1
  Li  Li384  1  0.11309093  0.02842933  0.06954431  1
  Li  Li385  1  0.11309093  0.02842933  0.31954430  1
  Li  Li386  1  0.11309093  0.02842933  0.56954430  1
  Li  Li387  1  0.11309093  0.02842933  0.81954431  1
  Li  Li388  1  0.11309093  0.27842934  0.06954431  1
  Li  Li389  1  0.11309093  0.27842934  0.31954430  1
  Li  Li390  1  0.11309093  0.27842934  0.56954430  1
  Li  Li391  1  0.11309093  0.27842934  0.81954431  1
  Li  Li392  1  0.11309093  0.52842934  0.06954431  1
  Li  Li393  1  0.11309093  0.52842934  0.31954430  1
  Li  Li394  1  0.11309093  0.52842934  0.56954430  1
  Li  Li395  1  0.11309093  0.52842934  0.81954431  1
  Li  Li396  1  0.11309093  0.77842934  0.06954431  1
  Li  Li397  1  0.11309093  0.77842934  0.31954430  1
  Li  Li398  1  0.11309093  0.77842934  0.56954430  1
  Li  Li399  1  0.11309093  0.77842934  0.81954431  1
  Li  Li400  1  0.36309093  0.02842933  0.06954431  1
  Li  Li401  1  0.36309093  0.02842933  0.31954430  1
  Li  Li402  1  0.36309093  0.02842933  0.56954430  1
  Li  Li403  1  0.36309093  0.02842933  0.81954431  1
  Li  Li404  1  0.36309093  0.27842934  0.06954431  1
  Li  Li405  1  0.36309093  0.27842934  0.31954430  1
  Li  Li406  1  0.36309093  0.27842934  0.56954430  1
  Li  Li407  1  0.36309093  0.27842934  0.81954431  1
  Li  Li408  1  0.36309093  0.52842934  0.06954431  1
  Li  Li409  1  0.36309093  0.52842934  0.31954430  1
  Li  Li410  1  0.36309093  0.52842934  0.56954430  1
  Li  Li411  1  0.36309093  0.52842934  0.81954431  1
  Li  Li412  1  0.36309093  0.77842934  0.06954431  1
  Li  Li413  1  0.36309093  0.77842934  0.31954430  1
  Li  Li414  1  0.36309093  0.77842934  0.56954430  1
  Li  Li415  1  0.36309093  0.77842934  0.81954431  1
  Li  Li416  1  0.61309093  0.02842933  0.06954431  1
  Li  Li417  1  0.61309093  0.02842933  0.31954430  1
  Li  Li418  1  0.61309093  0.02842933  0.56954430  1
  Li  Li419  1  0.61309093  0.02842933  0.81954431  1
  Li  Li420  1  0.61309093  0.27842934  0.06954431  1
  Li  Li421  1  0.61309093  0.27842934  0.31954430  1
  Li  Li422  1  0.61309093  0.27842934  0.56954430  1
  Li  Li423  1  0.61309093  0.27842934  0.81954431  1
  Li  Li424  1  0.61309093  0.52842934  0.06954431  1
  Li  Li425  1  0.61309093  0.52842934  0.31954430  1
  Li  Li426  1  0.61309093  0.52842934  0.56954430  1
  Li  Li427  1  0.61309093  0.52842934  0.81954431  1
  Li  Li428  1  0.61309093  0.77842934  0.06954431  1
  Li  Li429  1  0.61309093  0.77842934  0.31954430  1
  Li  Li430  1  0.61309093  0.77842934  0.56954430  1
  Li  Li431  1  0.61309093  0.77842934  0.81954431  1
  Li  Li432  1  0.86309093  0.02842933  0.06954431  1
  Li  Li433  1  0.86309093  0.02842933  0.31954430  1
  Li  Li434  1  0.86309093  0.02842933  0.56954430  1
  Li  Li435  1  0.86309093  0.02842933  0.81954431  1
  Li  Li436  1  0.86309093  0.27842934  0.06954431  1
  Li  Li437  1  0.86309093  0.27842934  0.31954430  1
  Li  Li438  1  0.86309093  0.27842934  0.56954430  1
  Li  Li439  1  0.86309093  0.27842934  0.81954431  1
  Li  Li440  1  0.86309093  0.52842934  0.06954431  1
  Li  Li441  1  0.86309093  0.52842934  0.31954430  1
  Li  Li442  1  0.86309093  0.52842934  0.56954430  1
  Li  Li443  1  0.86309093  0.52842934  0.81954431  1
  Li  Li444  1  0.86309093  0.77842934  0.06954431  1
  Li  Li445  1  0.86309093  0.77842934  0.31954430  1
  Li  Li446  1  0.86309093  0.77842934  0.56954430  1
  Li  Li447  1  0.86309093  0.77842934  0.81954431  1
  Li  Li448  1  0.01190907  0.22157067  0.19454430  1
  Li  Li449  1  0.01190907  0.22157067  0.44454430  1
  Li  Li450  1  0.01190907  0.22157067  0.69454430  1
  Li  Li451  1  0.01190907  0.22157067  0.94454430  1
  Li  Li452  1  0.01190907  0.47157066  0.19454430  1
  Li  Li453  1  0.01190907  0.47157066  0.44454430  1
  Li  Li454  1  0.01190907  0.47157066  0.69454430  1
  Li  Li455  1  0.01190907  0.47157066  0.94454430  1
  Li  Li456  1  0.01190907  0.72157066  0.19454430  1
  Li  Li457  1  0.01190907  0.72157066  0.44454430  1
  Li  Li458  1  0.01190907  0.72157066  0.69454430  1
  Li  Li459  1  0.01190907  0.72157066  0.94454430  1
  Li  Li460  1  0.01190907  0.97157066  0.19454430  1
  Li  Li461  1  0.01190907  0.97157066  0.44454430  1
  Li  Li462  1  0.01190907  0.97157066  0.69454430  1
  Li  Li463  1  0.01190907  0.97157066  0.94454430  1
  Li  Li464  1  0.26190907  0.22157067  0.19454430  1
  Li  Li465  1  0.26190907  0.22157067  0.44454430  1
  Li  Li466  1  0.26190907  0.22157067  0.69454430  1
  Li  Li467  1  0.26190907  0.22157067  0.94454430  1
  Li  Li468  1  0.26190907  0.47157066  0.19454430  1
  Li  Li469  1  0.26190907  0.47157066  0.44454430  1
  Li  Li470  1  0.26190907  0.47157066  0.69454430  1
  Li  Li471  1  0.26190907  0.47157066  0.94454430  1
  Li  Li472  1  0.26190907  0.72157066  0.19454430  1
  Li  Li473  1  0.26190907  0.72157066  0.44454430  1
  Li  Li474  1  0.26190907  0.72157066  0.69454430  1
  Li  Li475  1  0.26190907  0.72157066  0.94454430  1
  Li  Li476  1  0.26190907  0.97157066  0.19454430  1
  Li  Li477  1  0.26190907  0.97157066  0.44454430  1
  Li  Li478  1  0.26190907  0.97157066  0.69454430  1
  Li  Li479  1  0.26190907  0.97157066  0.94454430  1
  Li  Li480  1  0.51190907  0.22157067  0.19454430  1
  Li  Li481  1  0.51190907  0.22157067  0.44454430  1
  Li  Li482  1  0.51190907  0.22157067  0.69454430  1
  Li  Li483  1  0.51190907  0.22157067  0.94454430  1
  Li  Li484  1  0.51190907  0.47157066  0.19454430  1
  Li  Li485  1  0.51190907  0.47157066  0.44454430  1
  Li  Li486  1  0.51190907  0.47157066  0.69454430  1
  Li  Li487  1  0.51190907  0.47157066  0.94454430  1
  Li  Li488  1  0.51190907  0.72157066  0.19454430  1
  Li  Li489  1  0.51190907  0.72157066  0.44454430  1
  Li  Li490  1  0.51190907  0.72157066  0.69454430  1
  Li  Li491  1  0.51190907  0.72157066  0.94454430  1
  Li  Li492  1  0.51190907  0.97157066  0.19454430  1
  Li  Li493  1  0.51190907  0.97157066  0.44454430  1
  Li  Li494  1  0.51190907  0.97157066  0.69454430  1
  Li  Li495  1  0.51190907  0.97157066  0.94454430  1
  Li  Li496  1  0.76190907  0.22157067  0.19454430  1
  Li  Li497  1  0.76190907  0.22157067  0.44454430  1
  Li  Li498  1  0.76190907  0.22157067  0.69454430  1
  Li  Li499  1  0.76190907  0.22157067  0.94454430  1
  Li  Li500  1  0.76190907  0.47157066  0.19454430  1
  Li  Li501  1  0.76190907  0.47157066  0.44454430  1
  Li  Li502  1  0.76190907  0.47157066  0.69454430  1
  Li  Li503  1  0.76190907  0.47157066  0.94454430  1
  Li  Li504  1  0.76190907  0.72157066  0.19454430  1
  Li  Li505  1  0.76190907  0.72157066  0.44454430  1
  Li  Li506  1  0.76190907  0.72157066  0.69454430  1
  Li  Li507  1  0.76190907  0.72157066  0.94454430  1
  Li  Li508  1  0.76190907  0.97157066  0.19454430  1
  Li  Li509  1  0.76190907  0.97157066  0.44454430  1
  Li  Li510  1  0.76190907  0.97157066  0.69454430  1
  Li  Li511  1  0.76190907  0.97157066  0.94454430  1
  Li  Li512  1  0.18045569  0.23809093  0.09657066  1
  Li  Li513  1  0.18045569  0.23809093  0.34657066  1
  Li  Li514  1  0.18045569  0.23809093  0.59657066  1
  Li  Li515  1  0.18045569  0.23809093  0.84657067  1
  Li  Li516  1  0.18045569  0.48809093  0.09657066  1
  Li  Li517  1  0.18045569  0.48809093  0.34657066  1
  Li  Li518  1  0.18045569  0.48809093  0.59657066  1
  Li  Li519  1  0.18045569  0.48809093  0.84657067  1
  Li  Li520  1  0.18045569  0.73809093  0.09657066  1
  Li  Li521  1  0.18045569  0.73809093  0.34657066  1
  Li  Li522  1  0.18045569  0.73809093  0.59657066  1
  Li  Li523  1  0.18045569  0.73809093  0.84657067  1
  Li  Li524  1  0.18045569  0.98809093  0.09657066  1
  Li  Li525  1  0.18045569  0.98809093  0.34657066  1
  Li  Li526  1  0.18045569  0.98809093  0.59657066  1
  Li  Li527  1  0.18045569  0.98809093  0.84657067  1
  Li  Li528  1  0.43045570  0.23809093  0.09657066  1
  Li  Li529  1  0.43045570  0.23809093  0.34657066  1
  Li  Li530  1  0.43045570  0.23809093  0.59657066  1
  Li  Li531  1  0.43045570  0.23809093  0.84657067  1
  Li  Li532  1  0.43045570  0.48809093  0.09657066  1
  Li  Li533  1  0.43045570  0.48809093  0.34657066  1
  Li  Li534  1  0.43045570  0.48809093  0.59657066  1
  Li  Li535  1  0.43045570  0.48809093  0.84657067  1
  Li  Li536  1  0.43045570  0.73809093  0.09657066  1
  Li  Li537  1  0.43045570  0.73809093  0.34657066  1
  Li  Li538  1  0.43045570  0.73809093  0.59657066  1
  Li  Li539  1  0.43045570  0.73809093  0.84657067  1
  Li  Li540  1  0.43045570  0.98809093  0.09657066  1
  Li  Li541  1  0.43045570  0.98809093  0.34657066  1
  Li  Li542  1  0.43045570  0.98809093  0.59657066  1
  Li  Li543  1  0.43045570  0.98809093  0.84657067  1
  Li  Li544  1  0.68045570  0.23809093  0.09657066  1
  Li  Li545  1  0.68045570  0.23809093  0.34657066  1
  Li  Li546  1  0.68045570  0.23809093  0.59657066  1
  Li  Li547  1  0.68045570  0.23809093  0.84657067  1
  Li  Li548  1  0.68045570  0.48809093  0.09657066  1
  Li  Li549  1  0.68045570  0.48809093  0.34657066  1
  Li  Li550  1  0.68045570  0.48809093  0.59657066  1
  Li  Li551  1  0.68045570  0.48809093  0.84657067  1
  Li  Li552  1  0.68045570  0.73809093  0.09657066  1
  Li  Li553  1  0.68045570  0.73809093  0.34657066  1
  Li  Li554  1  0.68045570  0.73809093  0.59657066  1
  Li  Li555  1  0.68045570  0.73809093  0.84657067  1
  Li  Li556  1  0.68045570  0.98809093  0.09657066  1
  Li  Li557  1  0.68045570  0.98809093  0.34657066  1
  Li  Li558  1  0.68045570  0.98809093  0.59657066  1
  Li  Li559  1  0.68045570  0.98809093  0.84657067  1
  Li  Li560  1  0.93045570  0.23809093  0.09657066  1
  Li  Li561  1  0.93045570  0.23809093  0.34657066  1
  Li  Li562  1  0.93045570  0.23809093  0.59657066  1
  Li  Li563  1  0.93045570  0.23809093  0.84657067  1
  Li  Li564  1  0.93045570  0.48809093  0.09657066  1
  Li  Li565  1  0.93045570  0.48809093  0.34657066  1
  Li  Li566  1  0.93045570  0.48809093  0.59657066  1
  Li  Li567  1  0.93045570  0.48809093  0.84657067  1
  Li  Li568  1  0.93045570  0.73809093  0.09657066  1
  Li  Li569  1  0.93045570  0.73809093  0.34657066  1
  Li  Li570  1  0.93045570  0.73809093  0.59657066  1
  Li  Li571  1  0.93045570  0.73809093  0.84657067  1
  Li  Li572  1  0.93045570  0.98809093  0.09657066  1
  Li  Li573  1  0.93045570  0.98809093  0.34657066  1
  Li  Li574  1  0.93045570  0.98809093  0.59657066  1
  Li  Li575  1  0.93045570  0.98809093  0.84657067  1
  Li  Li576  1  0.05545569  0.13690907  0.15342934  1
  Li  Li577  1  0.05545569  0.13690907  0.40342934  1
  Li  Li578  1  0.05545569  0.13690907  0.65342934  1
  Li  Li579  1  0.05545569  0.13690907  0.90342934  1
  Li  Li580  1  0.05545569  0.38690907  0.15342934  1
  Li  Li581  1  0.05545569  0.38690907  0.40342934  1
  Li  Li582  1  0.05545569  0.38690907  0.65342934  1
  Li  Li583  1  0.05545569  0.38690907  0.90342934  1
  Li  Li584  1  0.05545569  0.63690907  0.15342934  1
  Li  Li585  1  0.05545569  0.63690907  0.40342934  1
  Li  Li586  1  0.05545569  0.63690907  0.65342934  1
  Li  Li587  1  0.05545569  0.63690907  0.90342934  1
  Li  Li588  1  0.05545569  0.88690907  0.15342934  1
  Li  Li589  1  0.05545569  0.88690907  0.40342934  1
  Li  Li590  1  0.05545569  0.88690907  0.65342934  1
  Li  Li591  1  0.05545569  0.88690907  0.90342934  1
  Li  Li592  1  0.30545569  0.13690907  0.15342934  1
  Li  Li593  1  0.30545569  0.13690907  0.40342934  1
  Li  Li594  1  0.30545569  0.13690907  0.65342934  1
  Li  Li595  1  0.30545569  0.13690907  0.90342934  1
  Li  Li596  1  0.30545569  0.38690907  0.15342934  1
  Li  Li597  1  0.30545569  0.38690907  0.40342934  1
  Li  Li598  1  0.30545569  0.38690907  0.65342934  1
  Li  Li599  1  0.30545569  0.38690907  0.90342934  1
  Li  Li600  1  0.30545569  0.63690907  0.15342934  1
  Li  Li601  1  0.30545569  0.63690907  0.40342934  1
  Li  Li602  1  0.30545569  0.63690907  0.65342934  1
  Li  Li603  1  0.30545569  0.63690907  0.90342934  1
  Li  Li604  1  0.30545569  0.88690907  0.15342934  1
  Li  Li605  1  0.30545569  0.88690907  0.40342934  1
  Li  Li606  1  0.30545569  0.88690907  0.65342934  1
  Li  Li607  1  0.30545569  0.88690907  0.90342934  1
  Li  Li608  1  0.55545570  0.13690907  0.15342934  1
  Li  Li609  1  0.55545570  0.13690907  0.40342934  1
  Li  Li610  1  0.55545570  0.13690907  0.65342934  1
  Li  Li611  1  0.55545570  0.13690907  0.90342934  1
  Li  Li612  1  0.55545570  0.38690907  0.15342934  1
  Li  Li613  1  0.55545570  0.38690907  0.40342934  1
  Li  Li614  1  0.55545570  0.38690907  0.65342934  1
  Li  Li615  1  0.55545570  0.38690907  0.90342934  1
  Li  Li616  1  0.55545570  0.63690907  0.15342934  1
  Li  Li617  1  0.55545570  0.63690907  0.40342934  1
  Li  Li618  1  0.55545570  0.63690907  0.65342934  1
  Li  Li619  1  0.55545570  0.63690907  0.90342934  1
  Li  Li620  1  0.55545570  0.88690907  0.15342934  1
  Li  Li621  1  0.55545570  0.88690907  0.40342934  1
  Li  Li622  1  0.55545570  0.88690907  0.65342934  1
  Li  Li623  1  0.55545570  0.88690907  0.90342934  1
  Li  Li624  1  0.80545570  0.13690907  0.15342934  1
  Li  Li625  1  0.80545570  0.13690907  0.40342934  1
  Li  Li626  1  0.80545570  0.13690907  0.65342934  1
  Li  Li627  1  0.80545570  0.13690907  0.90342934  1
  Li  Li628  1  0.80545570  0.38690907  0.15342934  1
  Li  Li629  1  0.80545570  0.38690907  0.40342934  1
  Li  Li630  1  0.80545570  0.38690907  0.65342934  1
  Li  Li631  1  0.80545570  0.38690907  0.90342934  1
  Li  Li632  1  0.80545570  0.63690907  0.15342934  1
  Li  Li633  1  0.80545570  0.63690907  0.40342934  1
  Li  Li634  1  0.80545570  0.63690907  0.65342934  1
  Li  Li635  1  0.80545570  0.63690907  0.90342934  1
  Li  Li636  1  0.80545570  0.88690907  0.15342934  1
  Li  Li637  1  0.80545570  0.88690907  0.40342934  1
  Li  Li638  1  0.80545570  0.88690907  0.65342934  1
  Li  Li639  1  0.80545570  0.88690907  0.90342934  1
  Li  Li640  1  0.06954431  0.11309093  0.02842933  1
  Li  Li641  1  0.06954431  0.11309093  0.27842934  1
  Li  Li642  1  0.06954431  0.11309093  0.52842934  1
  Li  Li643  1  0.06954431  0.11309093  0.77842934  1
  Li  Li644  1  0.06954431  0.36309093  0.02842933  1
  Li  Li645  1  0.06954431  0.36309093  0.27842934  1
  Li  Li646  1  0.06954431  0.36309093  0.52842934  1
  Li  Li647  1  0.06954431  0.36309093  0.77842934  1
  Li  Li648  1  0.06954431  0.61309093  0.02842933  1
  Li  Li649  1  0.06954431  0.61309093  0.27842934  1
  Li  Li650  1  0.06954431  0.61309093  0.52842934  1
  Li  Li651  1  0.06954431  0.61309093  0.77842934  1
  Li  Li652  1  0.06954431  0.86309093  0.02842933  1
  Li  Li653  1  0.06954431  0.86309093  0.27842934  1
  Li  Li654  1  0.06954431  0.86309093  0.52842934  1
  Li  Li655  1  0.06954431  0.86309093  0.77842934  1
  Li  Li656  1  0.31954430  0.11309093  0.02842933  1
  Li  Li657  1  0.31954430  0.11309093  0.27842934  1
  Li  Li658  1  0.31954430  0.11309093  0.52842934  1
  Li  Li659  1  0.31954430  0.11309093  0.77842934  1
  Li  Li660  1  0.31954430  0.36309093  0.02842933  1
  Li  Li661  1  0.31954430  0.36309093  0.27842934  1
  Li  Li662  1  0.31954430  0.36309093  0.52842934  1
  Li  Li663  1  0.31954430  0.36309093  0.77842934  1
  Li  Li664  1  0.31954430  0.61309093  0.02842933  1
  Li  Li665  1  0.31954430  0.61309093  0.27842934  1
  Li  Li666  1  0.31954430  0.61309093  0.52842934  1
  Li  Li667  1  0.31954430  0.61309093  0.77842934  1
  Li  Li668  1  0.31954430  0.86309093  0.02842933  1
  Li  Li669  1  0.31954430  0.86309093  0.27842934  1
  Li  Li670  1  0.31954430  0.86309093  0.52842934  1
  Li  Li671  1  0.31954430  0.86309093  0.77842934  1
  Li  Li672  1  0.56954430  0.11309093  0.02842933  1
  Li  Li673  1  0.56954430  0.11309093  0.27842934  1
  Li  Li674  1  0.56954430  0.11309093  0.52842934  1
  Li  Li675  1  0.56954430  0.11309093  0.77842934  1
  Li  Li676  1  0.56954430  0.36309093  0.02842933  1
  Li  Li677  1  0.56954430  0.36309093  0.27842934  1
  Li  Li678  1  0.56954430  0.36309093  0.52842934  1
  Li  Li679  1  0.56954430  0.36309093  0.77842934  1
  Li  Li680  1  0.56954430  0.61309093  0.02842933  1
  Li  Li681  1  0.56954430  0.61309093  0.27842934  1
  Li  Li682  1  0.56954430  0.61309093  0.52842934  1
  Li  Li683  1  0.56954430  0.61309093  0.77842934  1
  Li  Li684  1  0.56954430  0.86309093  0.02842933  1
  Li  Li685  1  0.56954430  0.86309093  0.27842934  1
  Li  Li686  1  0.56954430  0.86309093  0.52842934  1
  Li  Li687  1  0.56954430  0.86309093  0.77842934  1
  Li  Li688  1  0.81954431  0.11309093  0.02842933  1
  Li  Li689  1  0.81954431  0.11309093  0.27842934  1
  Li  Li690  1  0.81954431  0.11309093  0.52842934  1
  Li  Li691  1  0.81954431  0.11309093  0.77842934  1
  Li  Li692  1  0.81954431  0.36309093  0.02842933  1
  Li  Li693  1  0.81954431  0.36309093  0.27842934  1
  Li  Li694  1  0.81954431  0.36309093  0.52842934  1
  Li  Li695  1  0.81954431  0.36309093  0.77842934  1
  Li  Li696  1  0.81954431  0.61309093  0.02842933  1
  Li  Li697  1  0.81954431  0.61309093  0.27842934  1
  Li  Li698  1  0.81954431  0.61309093  0.52842934  1
  Li  Li699  1  0.81954431  0.61309093  0.77842934  1
  Li  Li700  1  0.81954431  0.86309093  0.02842933  1
  Li  Li701  1  0.81954431  0.86309093  0.27842934  1
  Li  Li702  1  0.81954431  0.86309093  0.52842934  1
  Li  Li703  1  0.81954431  0.86309093  0.77842934  1
  Li  Li704  1  0.19454430  0.01190907  0.22157067  1
  Li  Li705  1  0.19454430  0.01190907  0.47157066  1
  Li  Li706  1  0.19454430  0.01190907  0.72157066  1
  Li  Li707  1  0.19454430  0.01190907  0.97157066  1
  Li  Li708  1  0.19454430  0.26190907  0.22157067  1
  Li  Li709  1  0.19454430  0.26190907  0.47157066  1
  Li  Li710  1  0.19454430  0.26190907  0.72157066  1
  Li  Li711  1  0.19454430  0.26190907  0.97157066  1
  Li  Li712  1  0.19454430  0.51190907  0.22157067  1
  Li  Li713  1  0.19454430  0.51190907  0.47157066  1
  Li  Li714  1  0.19454430  0.51190907  0.72157066  1
  Li  Li715  1  0.19454430  0.51190907  0.97157066  1
  Li  Li716  1  0.19454430  0.76190907  0.22157067  1
  Li  Li717  1  0.19454430  0.76190907  0.47157066  1
  Li  Li718  1  0.19454430  0.76190907  0.72157066  1
  Li  Li719  1  0.19454430  0.76190907  0.97157066  1
  Li  Li720  1  0.44454430  0.01190907  0.22157067  1
  Li  Li721  1  0.44454430  0.01190907  0.47157066  1
  Li  Li722  1  0.44454430  0.01190907  0.72157066  1
  Li  Li723  1  0.44454430  0.01190907  0.97157066  1
  Li  Li724  1  0.44454430  0.26190907  0.22157067  1
  Li  Li725  1  0.44454430  0.26190907  0.47157066  1
  Li  Li726  1  0.44454430  0.26190907  0.72157066  1
  Li  Li727  1  0.44454430  0.26190907  0.97157066  1
  Li  Li728  1  0.44454430  0.51190907  0.22157067  1
  Li  Li729  1  0.44454430  0.51190907  0.47157066  1
  Li  Li730  1  0.44454430  0.51190907  0.72157066  1
  Li  Li731  1  0.44454430  0.51190907  0.97157066  1
  Li  Li732  1  0.44454430  0.76190907  0.22157067  1
  Li  Li733  1  0.44454430  0.76190907  0.47157066  1
  Li  Li734  1  0.44454430  0.76190907  0.72157066  1
  Li  Li735  1  0.44454430  0.76190907  0.97157066  1
  Li  Li736  1  0.69454430  0.01190907  0.22157067  1
  Li  Li737  1  0.69454430  0.01190907  0.47157066  1
  Li  Li738  1  0.69454430  0.01190907  0.72157066  1
  Li  Li739  1  0.69454430  0.01190907  0.97157066  1
  Li  Li740  1  0.69454430  0.26190907  0.22157067  1
  Li  Li741  1  0.69454430  0.26190907  0.47157066  1
  Li  Li742  1  0.69454430  0.26190907  0.72157066  1
  Li  Li743  1  0.69454430  0.26190907  0.97157066  1
  Li  Li744  1  0.69454430  0.51190907  0.22157067  1
  Li  Li745  1  0.69454430  0.51190907  0.47157066  1
  Li  Li746  1  0.69454430  0.51190907  0.72157066  1
  Li  Li747  1  0.69454430  0.51190907  0.97157066  1
  Li  Li748  1  0.69454430  0.76190907  0.22157067  1
  Li  Li749  1  0.69454430  0.76190907  0.47157066  1
  Li  Li750  1  0.69454430  0.76190907  0.72157066  1
  Li  Li751  1  0.69454430  0.76190907  0.97157066  1
  Li  Li752  1  0.94454430  0.01190907  0.22157067  1
  Li  Li753  1  0.94454430  0.01190907  0.47157066  1
  Li  Li754  1  0.94454430  0.01190907  0.72157066  1
  Li  Li755  1  0.94454430  0.01190907  0.97157066  1
  Li  Li756  1  0.94454430  0.26190907  0.22157067  1
  Li  Li757  1  0.94454430  0.26190907  0.47157066  1
  Li  Li758  1  0.94454430  0.26190907  0.72157066  1
  Li  Li759  1  0.94454430  0.26190907  0.97157066  1
  Li  Li760  1  0.94454430  0.51190907  0.22157067  1
  Li  Li761  1  0.94454430  0.51190907  0.47157066  1
  Li  Li762  1  0.94454430  0.51190907  0.72157066  1
  Li  Li763  1  0.94454430  0.51190907  0.97157066  1
  Li  Li764  1  0.94454430  0.76190907  0.22157067  1
  Li  Li765  1  0.94454430  0.76190907  0.47157066  1
  Li  Li766  1  0.94454430  0.76190907  0.72157066  1
  Li  Li767  1  0.94454430  0.76190907  0.97157066  1
  Li  Li768  1  0.15342934  0.06954431  0.01190907  1
  Li  Li769  1  0.15342934  0.06954431  0.26190907  1
  Li  Li770  1  0.15342934  0.06954431  0.51190907  1
  Li  Li771  1  0.15342934  0.06954431  0.76190907  1
  Li  Li772  1  0.15342934  0.31954430  0.01190907  1
  Li  Li773  1  0.15342934  0.31954430  0.26190907  1
  Li  Li774  1  0.15342934  0.31954430  0.51190907  1
  Li  Li775  1  0.15342934  0.31954430  0.76190907  1
  Li  Li776  1  0.15342934  0.56954430  0.01190907  1
  Li  Li777  1  0.15342934  0.56954430  0.26190907  1
  Li  Li778  1  0.15342934  0.56954430  0.51190907  1
  Li  Li779  1  0.15342934  0.56954430  0.76190907  1
  Li  Li780  1  0.15342934  0.81954431  0.01190907  1
  Li  Li781  1  0.15342934  0.81954431  0.26190907  1
  Li  Li782  1  0.15342934  0.81954431  0.51190907  1
  Li  Li783  1  0.15342934  0.81954431  0.76190907  1
  Li  Li784  1  0.40342934  0.06954431  0.01190907  1
  Li  Li785  1  0.40342934  0.06954431  0.26190907  1
  Li  Li786  1  0.40342934  0.06954431  0.51190907  1
  Li  Li787  1  0.40342934  0.06954431  0.76190907  1
  Li  Li788  1  0.40342934  0.31954430  0.01190907  1
  Li  Li789  1  0.40342934  0.31954430  0.26190907  1
  Li  Li790  1  0.40342934  0.31954430  0.51190907  1
  Li  Li791  1  0.40342934  0.31954430  0.76190907  1
  Li  Li792  1  0.40342934  0.56954430  0.01190907  1
  Li  Li793  1  0.40342934  0.56954430  0.26190907  1
  Li  Li794  1  0.40342934  0.56954430  0.51190907  1
  Li  Li795  1  0.40342934  0.56954430  0.76190907  1
  Li  Li796  1  0.40342934  0.81954431  0.01190907  1
  Li  Li797  1  0.40342934  0.81954431  0.26190907  1
  Li  Li798  1  0.40342934  0.81954431  0.51190907  1
  Li  Li799  1  0.40342934  0.81954431  0.76190907  1
  Li  Li800  1  0.65342934  0.06954431  0.01190907  1
  Li  Li801  1  0.65342934  0.06954431  0.26190907  1
  Li  Li802  1  0.65342934  0.06954431  0.51190907  1
  Li  Li803  1  0.65342934  0.06954431  0.76190907  1
  Li  Li804  1  0.65342934  0.31954430  0.01190907  1
  Li  Li805  1  0.65342934  0.31954430  0.26190907  1
  Li  Li806  1  0.65342934  0.31954430  0.51190907  1
  Li  Li807  1  0.65342934  0.31954430  0.76190907  1
  Li  Li808  1  0.65342934  0.56954430  0.01190907  1
  Li  Li809  1  0.65342934  0.56954430  0.26190907  1
  Li  Li810  1  0.65342934  0.56954430  0.51190907  1
  Li  Li811  1  0.65342934  0.56954430  0.76190907  1
  Li  Li812  1  0.65342934  0.81954431  0.01190907  1
  Li  Li813  1  0.65342934  0.81954431  0.26190907  1
  Li  Li814  1  0.65342934  0.81954431  0.51190907  1
  Li  Li815  1  0.65342934  0.81954431  0.76190907  1
  Li  Li816  1  0.90342934  0.06954431  0.01190907  1
  Li  Li817  1  0.90342934  0.06954431  0.26190907  1
  Li  Li818  1  0.90342934  0.06954431  0.51190907  1
  Li  Li819  1  0.90342934  0.06954431  0.76190907  1
  Li  Li820  1  0.90342934  0.31954430  0.01190907  1
  Li  Li821  1  0.90342934  0.31954430  0.26190907  1
  Li  Li822  1  0.90342934  0.31954430  0.51190907  1
  Li  Li823  1  0.90342934  0.31954430  0.76190907  1
  Li  Li824  1  0.90342934  0.56954430  0.01190907  1
  Li  Li825  1  0.90342934  0.56954430  0.26190907  1
  Li  Li826  1  0.90342934  0.56954430  0.51190907  1
  Li  Li827  1  0.90342934  0.56954430  0.76190907  1
  Li  Li828  1  0.90342934  0.81954431  0.01190907  1
  Li  Li829  1  0.90342934  0.81954431  0.26190907  1
  Li  Li830  1  0.90342934  0.81954431  0.51190907  1
  Li  Li831  1  0.90342934  0.81954431  0.76190907  1
  Li  Li832  1  0.09657066  0.19454430  0.11309093  1
  Li  Li833  1  0.09657066  0.19454430  0.36309093  1
  Li  Li834  1  0.09657066  0.19454430  0.61309093  1
  Li  Li835  1  0.09657066  0.19454430  0.86309093  1
  Li  Li836  1  0.09657066  0.44454430  0.11309093  1
  Li  Li837  1  0.09657066  0.44454430  0.36309093  1
  Li  Li838  1  0.09657066  0.44454430  0.61309093  1
  Li  Li839  1  0.09657066  0.44454430  0.86309093  1
  Li  Li840  1  0.09657066  0.69454430  0.11309093  1
  Li  Li841  1  0.09657066  0.69454430  0.36309093  1
  Li  Li842  1  0.09657066  0.69454430  0.61309093  1
  Li  Li843  1  0.09657066  0.69454430  0.86309093  1
  Li  Li844  1  0.09657066  0.94454430  0.11309093  1
  Li  Li845  1  0.09657066  0.94454430  0.36309093  1
  Li  Li846  1  0.09657066  0.94454430  0.61309093  1
  Li  Li847  1  0.09657066  0.94454430  0.86309093  1
  Li  Li848  1  0.34657066  0.19454430  0.11309093  1
  Li  Li849  1  0.34657066  0.19454430  0.36309093  1
  Li  Li850  1  0.34657066  0.19454430  0.61309093  1
  Li  Li851  1  0.34657066  0.19454430  0.86309093  1
  Li  Li852  1  0.34657066  0.44454430  0.11309093  1
  Li  Li853  1  0.34657066  0.44454430  0.36309093  1
  Li  Li854  1  0.34657066  0.44454430  0.61309093  1
  Li  Li855  1  0.34657066  0.44454430  0.86309093  1
  Li  Li856  1  0.34657066  0.69454430  0.11309093  1
  Li  Li857  1  0.34657066  0.69454430  0.36309093  1
  Li  Li858  1  0.34657066  0.69454430  0.61309093  1
  Li  Li859  1  0.34657066  0.69454430  0.86309093  1
  Li  Li860  1  0.34657066  0.94454430  0.11309093  1
  Li  Li861  1  0.34657066  0.94454430  0.36309093  1
  Li  Li862  1  0.34657066  0.94454430  0.61309093  1
  Li  Li863  1  0.34657066  0.94454430  0.86309093  1
  Li  Li864  1  0.59657066  0.19454430  0.11309093  1
  Li  Li865  1  0.59657066  0.19454430  0.36309093  1
  Li  Li866  1  0.59657066  0.19454430  0.61309093  1
  Li  Li867  1  0.59657066  0.19454430  0.86309093  1
  Li  Li868  1  0.59657066  0.44454430  0.11309093  1
  Li  Li869  1  0.59657066  0.44454430  0.36309093  1
  Li  Li870  1  0.59657066  0.44454430  0.61309093  1
  Li  Li871  1  0.59657066  0.44454430  0.86309093  1
  Li  Li872  1  0.59657066  0.69454430  0.11309093  1
  Li  Li873  1  0.59657066  0.69454430  0.36309093  1
  Li  Li874  1  0.59657066  0.69454430  0.61309093  1
  Li  Li875  1  0.59657066  0.69454430  0.86309093  1
  Li  Li876  1  0.59657066  0.94454430  0.11309093  1
  Li  Li877  1  0.59657066  0.94454430  0.36309093  1
  Li  Li878  1  0.59657066  0.94454430  0.61309093  1
  Li  Li879  1  0.59657066  0.94454430  0.86309093  1
  Li  Li880  1  0.84657067  0.19454430  0.11309093  1
  Li  Li881  1  0.84657067  0.19454430  0.36309093  1
  Li  Li882  1  0.84657067  0.19454430  0.61309093  1
  Li  Li883  1  0.84657067  0.19454430  0.86309093  1
  Li  Li884  1  0.84657067  0.44454430  0.11309093  1
  Li  Li885  1  0.84657067  0.44454430  0.36309093  1
  Li  Li886  1  0.84657067  0.44454430  0.61309093  1
  Li  Li887  1  0.84657067  0.44454430  0.86309093  1
  Li  Li888  1  0.84657067  0.69454430  0.11309093  1
  Li  Li889  1  0.84657067  0.69454430  0.36309093  1
  Li  Li890  1  0.84657067  0.69454430  0.61309093  1
  Li  Li891  1  0.84657067  0.69454430  0.86309093  1
  Li  Li892  1  0.84657067  0.94454430  0.11309093  1
  Li  Li893  1  0.84657067  0.94454430  0.36309093  1
  Li  Li894  1  0.84657067  0.94454430  0.61309093  1
  Li  Li895  1  0.84657067  0.94454430  0.86309093  1
  Li  Li896  1  0.22157067  0.18045569  0.13690907  1
  Li  Li897  1  0.22157067  0.18045569  0.38690907  1
  Li  Li898  1  0.22157067  0.18045569  0.63690907  1
  Li  Li899  1  0.22157067  0.18045569  0.88690907  1
  Li  Li900  1  0.22157067  0.43045570  0.13690907  1
  Li  Li901  1  0.22157067  0.43045570  0.38690907  1
  Li  Li902  1  0.22157067  0.43045570  0.63690907  1
  Li  Li903  1  0.22157067  0.43045570  0.88690907  1
  Li  Li904  1  0.22157067  0.68045570  0.13690907  1
  Li  Li905  1  0.22157067  0.68045570  0.38690907  1
  Li  Li906  1  0.22157067  0.68045570  0.63690907  1
  Li  Li907  1  0.22157067  0.68045570  0.88690907  1
  Li  Li908  1  0.22157067  0.93045570  0.13690907  1
  Li  Li909  1  0.22157067  0.93045570  0.38690907  1
  Li  Li910  1  0.22157067  0.93045570  0.63690907  1
  Li  Li911  1  0.22157067  0.93045570  0.88690907  1
  Li  Li912  1  0.47157066  0.18045569  0.13690907  1
  Li  Li913  1  0.47157066  0.18045569  0.38690907  1
  Li  Li914  1  0.47157066  0.18045569  0.63690907  1
  Li  Li915  1  0.47157066  0.18045569  0.88690907  1
  Li  Li916  1  0.47157066  0.43045570  0.13690907  1
  Li  Li917  1  0.47157066  0.43045570  0.38690907  1
  Li  Li918  1  0.47157066  0.43045570  0.63690907  1
  Li  Li919  1  0.47157066  0.43045570  0.88690907  1
  Li  Li920  1  0.47157066  0.68045570  0.13690907  1
  Li  Li921  1  0.47157066  0.68045570  0.38690907  1
  Li  Li922  1  0.47157066  0.68045570  0.63690907  1
  Li  Li923  1  0.47157066  0.68045570  0.88690907  1
  Li  Li924  1  0.47157066  0.93045570  0.13690907  1
  Li  Li925  1  0.47157066  0.93045570  0.38690907  1
  Li  Li926  1  0.47157066  0.93045570  0.63690907  1
  Li  Li927  1  0.47157066  0.93045570  0.88690907  1
  Li  Li928  1  0.72157066  0.18045569  0.13690907  1
  Li  Li929  1  0.72157066  0.18045569  0.38690907  1
  Li  Li930  1  0.72157066  0.18045569  0.63690907  1
  Li  Li931  1  0.72157066  0.18045569  0.88690907  1
  Li  Li932  1  0.72157066  0.43045570  0.13690907  1
  Li  Li933  1  0.72157066  0.43045570  0.38690907  1
  Li  Li934  1  0.72157066  0.43045570  0.63690907  1
  Li  Li935  1  0.72157066  0.43045570  0.88690907  1
  Li  Li936  1  0.72157066  0.68045570  0.13690907  1
  Li  Li937  1  0.72157066  0.68045570  0.38690907  1
  Li  Li938  1  0.72157066  0.68045570  0.63690907  1
  Li  Li939  1  0.72157066  0.68045570  0.88690907  1
  Li  Li940  1  0.72157066  0.93045570  0.13690907  1
  Li  Li941  1  0.72157066  0.93045570  0.38690907  1
  Li  Li942  1  0.72157066  0.93045570  0.63690907  1
  Li  Li943  1  0.72157066  0.93045570  0.88690907  1
  Li  Li944  1  0.97157066  0.18045569  0.13690907  1
  Li  Li945  1  0.97157066  0.18045569  0.38690907  1
  Li  Li946  1  0.97157066  0.18045569  0.63690907  1
  Li  Li947  1  0.97157066  0.18045569  0.88690907  1
  Li  Li948  1  0.97157066  0.43045570  0.13690907  1
  Li  Li949  1  0.97157066  0.43045570  0.38690907  1
  Li  Li950  1  0.97157066  0.43045570  0.63690907  1
  Li  Li951  1  0.97157066  0.43045570  0.88690907  1
  Li  Li952  1  0.97157066  0.68045570  0.13690907  1
  Li  Li953  1  0.97157066  0.68045570  0.38690907  1
  Li  Li954  1  0.97157066  0.68045570  0.63690907  1
  Li  Li955  1  0.97157066  0.68045570  0.88690907  1
  Li  Li956  1  0.97157066  0.93045570  0.13690907  1
  Li  Li957  1  0.97157066  0.93045570  0.38690907  1
  Li  Li958  1  0.97157066  0.93045570  0.63690907  1
  Li  Li959  1  0.97157066  0.93045570  0.88690907  1
  Li  Li960  1  0.02842933  0.05545569  0.23809093  1
  Li  Li961  1  0.02842933  0.05545569  0.48809093  1
  Li  Li962  1  0.02842933  0.05545569  0.73809093  1
  Li  Li963  1  0.02842933  0.05545569  0.98809093  1
  Li  Li964  1  0.02842933  0.30545569  0.23809093  1
  Li  Li965  1  0.02842933  0.30545569  0.48809093  1
  Li  Li966  1  0.02842933  0.30545569  0.73809093  1
  Li  Li967  1  0.02842933  0.30545569  0.98809093  1
  Li  Li968  1  0.02842933  0.55545570  0.23809093  1
  Li  Li969  1  0.02842933  0.55545570  0.48809093  1
  Li  Li970  1  0.02842933  0.55545570  0.73809093  1
  Li  Li971  1  0.02842933  0.55545570  0.98809093  1
  Li  Li972  1  0.02842933  0.80545570  0.23809093  1
  Li  Li973  1  0.02842933  0.80545570  0.48809093  1
  Li  Li974  1  0.02842933  0.80545570  0.73809093  1
  Li  Li975  1  0.02842933  0.80545570  0.98809093  1
  Li  Li976  1  0.27842934  0.05545569  0.23809093  1
  Li  Li977  1  0.27842934  0.05545569  0.48809093  1
  Li  Li978  1  0.27842934  0.05545569  0.73809093  1
  Li  Li979  1  0.27842934  0.05545569  0.98809093  1
  Li  Li980  1  0.27842934  0.30545569  0.23809093  1
  Li  Li981  1  0.27842934  0.30545569  0.48809093  1
  Li  Li982  1  0.27842934  0.30545569  0.73809093  1
  Li  Li983  1  0.27842934  0.30545569  0.98809093  1
  Li  Li984  1  0.27842934  0.55545570  0.23809093  1
  Li  Li985  1  0.27842934  0.55545570  0.48809093  1
  Li  Li986  1  0.27842934  0.55545570  0.73809093  1
  Li  Li987  1  0.27842934  0.55545570  0.98809093  1
  Li  Li988  1  0.27842934  0.80545570  0.23809093  1
  Li  Li989  1  0.27842934  0.80545570  0.48809093  1
  Li  Li990  1  0.27842934  0.80545570  0.73809093  1
  Li  Li991  1  0.27842934  0.80545570  0.98809093  1
  Li  Li992  1  0.52842934  0.05545569  0.23809093  1
  Li  Li993  1  0.52842934  0.05545569  0.48809093  1
  Li  Li994  1  0.52842934  0.05545569  0.73809093  1
  Li  Li995  1  0.52842934  0.05545569  0.98809093  1
  Li  Li996  1  0.52842934  0.30545569  0.23809093  1
  Li  Li997  1  0.52842934  0.30545569  0.48809093  1
  Li  Li998  1  0.52842934  0.30545569  0.73809093  1
  Li  Li999  1  0.52842934  0.30545569  0.98809093  1
  Li  Li1000  1  0.52842934  0.55545570  0.23809093  1
  Li  Li1001  1  0.52842934  0.55545570  0.48809093  1
  Li  Li1002  1  0.52842934  0.55545570  0.73809093  1
  Li  Li1003  1  0.52842934  0.55545570  0.98809093  1
  Li  Li1004  1  0.52842934  0.80545570  0.23809093  1
  Li  Li1005  1  0.52842934  0.80545570  0.48809093  1
  Li  Li1006  1  0.52842934  0.80545570  0.73809093  1
  Li  Li1007  1  0.52842934  0.80545570  0.98809093  1
  Li  Li1008  1  0.77842934  0.05545569  0.23809093  1
  Li  Li1009  1  0.77842934  0.05545569  0.48809093  1
  Li  Li1010  1  0.77842934  0.05545569  0.73809093  1
  Li  Li1011  1  0.77842934  0.05545569  0.98809093  1
  Li  Li1012  1  0.77842934  0.30545569  0.23809093  1
  Li  Li1013  1  0.77842934  0.30545569  0.48809093  1
  Li  Li1014  1  0.77842934  0.30545569  0.73809093  1
  Li  Li1015  1  0.77842934  0.30545569  0.98809093  1
  Li  Li1016  1  0.77842934  0.55545570  0.23809093  1
  Li  Li1017  1  0.77842934  0.55545570  0.48809093  1
  Li  Li1018  1  0.77842934  0.55545570  0.73809093  1
  Li  Li1019  1  0.77842934  0.55545570  0.98809093  1
  Li  Li1020  1  0.77842934  0.80545570  0.23809093  1
  Li  Li1021  1  0.77842934  0.80545570  0.48809093  1
  Li  Li1022  1  0.77842934  0.80545570  0.73809093  1
  Li  Li1023  1  0.77842934  0.80545570  0.98809093  1
  Li  Li1024  1  0.01190907  0.15342934  0.06954431  1
  Li  Li1025  1  0.01190907  0.15342934  0.31954430  1
  Li  Li1026  1  0.01190907  0.15342934  0.56954430  1
  Li  Li1027  1  0.01190907  0.15342934  0.81954431  1
  Li  Li1028  1  0.01190907  0.40342934  0.06954431  1
  Li  Li1029  1  0.01190907  0.40342934  0.31954430  1
  Li  Li1030  1  0.01190907  0.40342934  0.56954430  1
  Li  Li1031  1  0.01190907  0.40342934  0.81954431  1
  Li  Li1032  1  0.01190907  0.65342934  0.06954431  1
  Li  Li1033  1  0.01190907  0.65342934  0.31954430  1
  Li  Li1034  1  0.01190907  0.65342934  0.56954430  1
  Li  Li1035  1  0.01190907  0.65342934  0.81954431  1
  Li  Li1036  1  0.01190907  0.90342934  0.06954431  1
  Li  Li1037  1  0.01190907  0.90342934  0.31954430  1
  Li  Li1038  1  0.01190907  0.90342934  0.56954430  1
  Li  Li1039  1  0.01190907  0.90342934  0.81954431  1
  Li  Li1040  1  0.26190907  0.15342934  0.06954431  1
  Li  Li1041  1  0.26190907  0.15342934  0.31954430  1
  Li  Li1042  1  0.26190907  0.15342934  0.56954430  1
  Li  Li1043  1  0.26190907  0.15342934  0.81954431  1
  Li  Li1044  1  0.26190907  0.40342934  0.06954431  1
  Li  Li1045  1  0.26190907  0.40342934  0.31954430  1
  Li  Li1046  1  0.26190907  0.40342934  0.56954430  1
  Li  Li1047  1  0.26190907  0.40342934  0.81954431  1
  Li  Li1048  1  0.26190907  0.65342934  0.06954431  1
  Li  Li1049  1  0.26190907  0.65342934  0.31954430  1
  Li  Li1050  1  0.26190907  0.65342934  0.56954430  1
  Li  Li1051  1  0.26190907  0.65342934  0.81954431  1
  Li  Li1052  1  0.26190907  0.90342934  0.06954431  1
  Li  Li1053  1  0.26190907  0.90342934  0.31954430  1
  Li  Li1054  1  0.26190907  0.90342934  0.56954430  1
  Li  Li1055  1  0.26190907  0.90342934  0.81954431  1
  Li  Li1056  1  0.51190907  0.15342934  0.06954431  1
  Li  Li1057  1  0.51190907  0.15342934  0.31954430  1
  Li  Li1058  1  0.51190907  0.15342934  0.56954430  1
  Li  Li1059  1  0.51190907  0.15342934  0.81954431  1
  Li  Li1060  1  0.51190907  0.40342934  0.06954431  1
  Li  Li1061  1  0.51190907  0.40342934  0.31954430  1
  Li  Li1062  1  0.51190907  0.40342934  0.56954430  1
  Li  Li1063  1  0.51190907  0.40342934  0.81954431  1
  Li  Li1064  1  0.51190907  0.65342934  0.06954431  1
  Li  Li1065  1  0.51190907  0.65342934  0.31954430  1
  Li  Li1066  1  0.51190907  0.65342934  0.56954430  1
  Li  Li1067  1  0.51190907  0.65342934  0.81954431  1
  Li  Li1068  1  0.51190907  0.90342934  0.06954431  1
  Li  Li1069  1  0.51190907  0.90342934  0.31954430  1
  Li  Li1070  1  0.51190907  0.90342934  0.56954430  1
  Li  Li1071  1  0.51190907  0.90342934  0.81954431  1
  Li  Li1072  1  0.76190907  0.15342934  0.06954431  1
  Li  Li1073  1  0.76190907  0.15342934  0.31954430  1
  Li  Li1074  1  0.76190907  0.15342934  0.56954430  1
  Li  Li1075  1  0.76190907  0.15342934  0.81954431  1
  Li  Li1076  1  0.76190907  0.40342934  0.06954431  1
  Li  Li1077  1  0.76190907  0.40342934  0.31954430  1
  Li  Li1078  1  0.76190907  0.40342934  0.56954430  1
  Li  Li1079  1  0.76190907  0.40342934  0.81954431  1
  Li  Li1080  1  0.76190907  0.65342934  0.06954431  1
  Li  Li1081  1  0.76190907  0.65342934  0.31954430  1
  Li  Li1082  1  0.76190907  0.65342934  0.56954430  1
  Li  Li1083  1  0.76190907  0.65342934  0.81954431  1
  Li  Li1084  1  0.76190907  0.90342934  0.06954431  1
  Li  Li1085  1  0.76190907  0.90342934  0.31954430  1
  Li  Li1086  1  0.76190907  0.90342934  0.56954430  1
  Li  Li1087  1  0.76190907  0.90342934  0.81954431  1
  Li  Li1088  1  0.11309093  0.09657066  0.19454430  1
  Li  Li1089  1  0.11309093  0.09657066  0.44454430  1
  Li  Li1090  1  0.11309093  0.09657066  0.69454430  1
  Li  Li1091  1  0.11309093  0.09657066  0.94454430  1
  Li  Li1092  1  0.11309093  0.34657066  0.19454430  1
  Li  Li1093  1  0.11309093  0.34657066  0.44454430  1
  Li  Li1094  1  0.11309093  0.34657066  0.69454430  1
  Li  Li1095  1  0.11309093  0.34657066  0.94454430  1
  Li  Li1096  1  0.11309093  0.59657066  0.19454430  1
  Li  Li1097  1  0.11309093  0.59657066  0.44454430  1
  Li  Li1098  1  0.11309093  0.59657066  0.69454430  1
  Li  Li1099  1  0.11309093  0.59657066  0.94454430  1
  Li  Li1100  1  0.11309093  0.84657067  0.19454430  1
  Li  Li1101  1  0.11309093  0.84657067  0.44454430  1
  Li  Li1102  1  0.11309093  0.84657067  0.69454430  1
  Li  Li1103  1  0.11309093  0.84657067  0.94454430  1
  Li  Li1104  1  0.36309093  0.09657066  0.19454430  1
  Li  Li1105  1  0.36309093  0.09657066  0.44454430  1
  Li  Li1106  1  0.36309093  0.09657066  0.69454430  1
  Li  Li1107  1  0.36309093  0.09657066  0.94454430  1
  Li  Li1108  1  0.36309093  0.34657066  0.19454430  1
  Li  Li1109  1  0.36309093  0.34657066  0.44454430  1
  Li  Li1110  1  0.36309093  0.34657066  0.69454430  1
  Li  Li1111  1  0.36309093  0.34657066  0.94454430  1
  Li  Li1112  1  0.36309093  0.59657066  0.19454430  1
  Li  Li1113  1  0.36309093  0.59657066  0.44454430  1
  Li  Li1114  1  0.36309093  0.59657066  0.69454430  1
  Li  Li1115  1  0.36309093  0.59657066  0.94454430  1
  Li  Li1116  1  0.36309093  0.84657067  0.19454430  1
  Li  Li1117  1  0.36309093  0.84657067  0.44454430  1
  Li  Li1118  1  0.36309093  0.84657067  0.69454430  1
  Li  Li1119  1  0.36309093  0.84657067  0.94454430  1
  Li  Li1120  1  0.61309093  0.09657066  0.19454430  1
  Li  Li1121  1  0.61309093  0.09657066  0.44454430  1
  Li  Li1122  1  0.61309093  0.09657066  0.69454430  1
  Li  Li1123  1  0.61309093  0.09657066  0.94454430  1
  Li  Li1124  1  0.61309093  0.34657066  0.19454430  1
  Li  Li1125  1  0.61309093  0.34657066  0.44454430  1
  Li  Li1126  1  0.61309093  0.34657066  0.69454430  1
  Li  Li1127  1  0.61309093  0.34657066  0.94454430  1
  Li  Li1128  1  0.61309093  0.59657066  0.19454430  1
  Li  Li1129  1  0.61309093  0.59657066  0.44454430  1
  Li  Li1130  1  0.61309093  0.59657066  0.69454430  1
  Li  Li1131  1  0.61309093  0.59657066  0.94454430  1
  Li  Li1132  1  0.61309093  0.84657067  0.19454430  1
  Li  Li1133  1  0.61309093  0.84657067  0.44454430  1
  Li  Li1134  1  0.61309093  0.84657067  0.69454430  1
  Li  Li1135  1  0.61309093  0.84657067  0.94454430  1
  Li  Li1136  1  0.86309093  0.09657066  0.19454430  1
  Li  Li1137  1  0.86309093  0.09657066  0.44454430  1
  Li  Li1138  1  0.86309093  0.09657066  0.69454430  1
  Li  Li1139  1  0.86309093  0.09657066  0.94454430  1
  Li  Li1140  1  0.86309093  0.34657066  0.19454430  1
  Li  Li1141  1  0.86309093  0.34657066  0.44454430  1
  Li  Li1142  1  0.86309093  0.34657066  0.69454430  1
  Li  Li1143  1  0.86309093  0.34657066  0.94454430  1
  Li  Li1144  1  0.86309093  0.59657066  0.19454430  1
  Li  Li1145  1  0.86309093  0.59657066  0.44454430  1
  Li  Li1146  1  0.86309093  0.59657066  0.69454430  1
  Li  Li1147  1  0.86309093  0.59657066  0.94454430  1
  Li  Li1148  1  0.86309093  0.84657067  0.19454430  1
  Li  Li1149  1  0.86309093  0.84657067  0.44454430  1
  Li  Li1150  1  0.86309093  0.84657067  0.69454430  1
  Li  Li1151  1  0.86309093  0.84657067  0.94454430  1
  Li  Li1152  1  0.13690907  0.22157067  0.18045569  1
  Li  Li1153  1  0.13690907  0.22157067  0.43045570  1
  Li  Li1154  1  0.13690907  0.22157067  0.68045570  1
  Li  Li1155  1  0.13690907  0.22157067  0.93045570  1
  Li  Li1156  1  0.13690907  0.47157066  0.18045569  1
  Li  Li1157  1  0.13690907  0.47157066  0.43045570  1
  Li  Li1158  1  0.13690907  0.47157066  0.68045570  1
  Li  Li1159  1  0.13690907  0.47157066  0.93045570  1
  Li  Li1160  1  0.13690907  0.72157066  0.18045569  1
  Li  Li1161  1  0.13690907  0.72157066  0.43045570  1
  Li  Li1162  1  0.13690907  0.72157066  0.68045570  1
  Li  Li1163  1  0.13690907  0.72157066  0.93045570  1
  Li  Li1164  1  0.13690907  0.97157066  0.18045569  1
  Li  Li1165  1  0.13690907  0.97157066  0.43045570  1
  Li  Li1166  1  0.13690907  0.97157066  0.68045570  1
  Li  Li1167  1  0.13690907  0.97157066  0.93045570  1
  Li  Li1168  1  0.38690907  0.22157067  0.18045569  1
  Li  Li1169  1  0.38690907  0.22157067  0.43045570  1
  Li  Li1170  1  0.38690907  0.22157067  0.68045570  1
  Li  Li1171  1  0.38690907  0.22157067  0.93045570  1
  Li  Li1172  1  0.38690907  0.47157066  0.18045569  1
  Li  Li1173  1  0.38690907  0.47157066  0.43045570  1
  Li  Li1174  1  0.38690907  0.47157066  0.68045570  1
  Li  Li1175  1  0.38690907  0.47157066  0.93045570  1
  Li  Li1176  1  0.38690907  0.72157066  0.18045569  1
  Li  Li1177  1  0.38690907  0.72157066  0.43045570  1
  Li  Li1178  1  0.38690907  0.72157066  0.68045570  1
  Li  Li1179  1  0.38690907  0.72157066  0.93045570  1
  Li  Li1180  1  0.38690907  0.97157066  0.18045569  1
  Li  Li1181  1  0.38690907  0.97157066  0.43045570  1
  Li  Li1182  1  0.38690907  0.97157066  0.68045570  1
  Li  Li1183  1  0.38690907  0.97157066  0.93045570  1
  Li  Li1184  1  0.63690907  0.22157067  0.18045569  1
  Li  Li1185  1  0.63690907  0.22157067  0.43045570  1
  Li  Li1186  1  0.63690907  0.22157067  0.68045570  1
  Li  Li1187  1  0.63690907  0.22157067  0.93045570  1
  Li  Li1188  1  0.63690907  0.47157066  0.18045569  1
  Li  Li1189  1  0.63690907  0.47157066  0.43045570  1
  Li  Li1190  1  0.63690907  0.47157066  0.68045570  1
  Li  Li1191  1  0.63690907  0.47157066  0.93045570  1
  Li  Li1192  1  0.63690907  0.72157066  0.18045569  1
  Li  Li1193  1  0.63690907  0.72157066  0.43045570  1
  Li  Li1194  1  0.63690907  0.72157066  0.68045570  1
  Li  Li1195  1  0.63690907  0.72157066  0.93045570  1
  Li  Li1196  1  0.63690907  0.97157066  0.18045569  1
  Li  Li1197  1  0.63690907  0.97157066  0.43045570  1
  Li  Li1198  1  0.63690907  0.97157066  0.68045570  1
  Li  Li1199  1  0.63690907  0.97157066  0.93045570  1
  Li  Li1200  1  0.88690907  0.22157067  0.18045569  1
  Li  Li1201  1  0.88690907  0.22157067  0.43045570  1
  Li  Li1202  1  0.88690907  0.22157067  0.68045570  1
  Li  Li1203  1  0.88690907  0.22157067  0.93045570  1
  Li  Li1204  1  0.88690907  0.47157066  0.18045569  1
  Li  Li1205  1  0.88690907  0.47157066  0.43045570  1
  Li  Li1206  1  0.88690907  0.47157066  0.68045570  1
  Li  Li1207  1  0.88690907  0.47157066  0.93045570  1
  Li  Li1208  1  0.88690907  0.72157066  0.18045569  1
  Li  Li1209  1  0.88690907  0.72157066  0.43045570  1
  Li  Li1210  1  0.88690907  0.72157066  0.68045570  1
  Li  Li1211  1  0.88690907  0.72157066  0.93045570  1
  Li  Li1212  1  0.88690907  0.97157066  0.18045569  1
  Li  Li1213  1  0.88690907  0.97157066  0.43045570  1
  Li  Li1214  1  0.88690907  0.97157066  0.68045570  1
  Li  Li1215  1  0.88690907  0.97157066  0.93045570  1
  Li  Li1216  1  0.23809093  0.02842933  0.05545569  1
  Li  Li1217  1  0.23809093  0.02842933  0.30545569  1
  Li  Li1218  1  0.23809093  0.02842933  0.55545570  1
  Li  Li1219  1  0.23809093  0.02842933  0.80545570  1
  Li  Li1220  1  0.23809093  0.27842934  0.05545569  1
  Li  Li1221  1  0.23809093  0.27842934  0.30545569  1
  Li  Li1222  1  0.23809093  0.27842934  0.55545570  1
  Li  Li1223  1  0.23809093  0.27842934  0.80545570  1
  Li  Li1224  1  0.23809093  0.52842934  0.05545569  1
  Li  Li1225  1  0.23809093  0.52842934  0.30545569  1
  Li  Li1226  1  0.23809093  0.52842934  0.55545570  1
  Li  Li1227  1  0.23809093  0.52842934  0.80545570  1
  Li  Li1228  1  0.23809093  0.77842934  0.05545569  1
  Li  Li1229  1  0.23809093  0.77842934  0.30545569  1
  Li  Li1230  1  0.23809093  0.77842934  0.55545570  1
  Li  Li1231  1  0.23809093  0.77842934  0.80545570  1
  Li  Li1232  1  0.48809093  0.02842933  0.05545569  1
  Li  Li1233  1  0.48809093  0.02842933  0.30545569  1
  Li  Li1234  1  0.48809093  0.02842933  0.55545570  1
  Li  Li1235  1  0.48809093  0.02842933  0.80545570  1
  Li  Li1236  1  0.48809093  0.27842934  0.05545569  1
  Li  Li1237  1  0.48809093  0.27842934  0.30545569  1
  Li  Li1238  1  0.48809093  0.27842934  0.55545570  1
  Li  Li1239  1  0.48809093  0.27842934  0.80545570  1
  Li  Li1240  1  0.48809093  0.52842934  0.05545569  1
  Li  Li1241  1  0.48809093  0.52842934  0.30545569  1
  Li  Li1242  1  0.48809093  0.52842934  0.55545570  1
  Li  Li1243  1  0.48809093  0.52842934  0.80545570  1
  Li  Li1244  1  0.48809093  0.77842934  0.05545569  1
  Li  Li1245  1  0.48809093  0.77842934  0.30545569  1
  Li  Li1246  1  0.48809093  0.77842934  0.55545570  1
  Li  Li1247  1  0.48809093  0.77842934  0.80545570  1
  Li  Li1248  1  0.73809093  0.02842933  0.05545569  1
  Li  Li1249  1  0.73809093  0.02842933  0.30545569  1
  Li  Li1250  1  0.73809093  0.02842933  0.55545570  1
  Li  Li1251  1  0.73809093  0.02842933  0.80545570  1
  Li  Li1252  1  0.73809093  0.27842934  0.05545569  1
  Li  Li1253  1  0.73809093  0.27842934  0.30545569  1
  Li  Li1254  1  0.73809093  0.27842934  0.55545570  1
  Li  Li1255  1  0.73809093  0.27842934  0.80545570  1
  Li  Li1256  1  0.73809093  0.52842934  0.05545569  1
  Li  Li1257  1  0.73809093  0.52842934  0.30545569  1
  Li  Li1258  1  0.73809093  0.52842934  0.55545570  1
  Li  Li1259  1  0.73809093  0.52842934  0.80545570  1
  Li  Li1260  1  0.73809093  0.77842934  0.05545569  1
  Li  Li1261  1  0.73809093  0.77842934  0.30545569  1
  Li  Li1262  1  0.73809093  0.77842934  0.55545570  1
  Li  Li1263  1  0.73809093  0.77842934  0.80545570  1
  Li  Li1264  1  0.98809093  0.02842933  0.05545569  1
  Li  Li1265  1  0.98809093  0.02842933  0.30545569  1
  Li  Li1266  1  0.98809093  0.02842933  0.55545570  1
  Li  Li1267  1  0.98809093  0.02842933  0.80545570  1
  Li  Li1268  1  0.98809093  0.27842934  0.05545569  1
  Li  Li1269  1  0.98809093  0.27842934  0.30545569  1
  Li  Li1270  1  0.98809093  0.27842934  0.55545570  1
  Li  Li1271  1  0.98809093  0.27842934  0.80545570  1
  Li  Li1272  1  0.98809093  0.52842934  0.05545569  1
  Li  Li1273  1  0.98809093  0.52842934  0.30545569  1
  Li  Li1274  1  0.98809093  0.52842934  0.55545570  1
  Li  Li1275  1  0.98809093  0.52842934  0.80545570  1
  Li  Li1276  1  0.98809093  0.77842934  0.05545569  1
  Li  Li1277  1  0.98809093  0.77842934  0.30545569  1
  Li  Li1278  1  0.98809093  0.77842934  0.55545570  1
  Li  Li1279  1  0.98809093  0.77842934  0.80545570  1
  Li  Li1280  1  0.06954431  0.01190907  0.15342934  1
  Li  Li1281  1  0.06954431  0.01190907  0.40342934  1
  Li  Li1282  1  0.06954431  0.01190907  0.65342934  1
  Li  Li1283  1  0.06954431  0.01190907  0.90342934  1
  Li  Li1284  1  0.06954431  0.26190907  0.15342934  1
  Li  Li1285  1  0.06954431  0.26190907  0.40342934  1
  Li  Li1286  1  0.06954431  0.26190907  0.65342934  1
  Li  Li1287  1  0.06954431  0.26190907  0.90342934  1
  Li  Li1288  1  0.06954431  0.51190907  0.15342934  1
  Li  Li1289  1  0.06954431  0.51190907  0.40342934  1
  Li  Li1290  1  0.06954431  0.51190907  0.65342934  1
  Li  Li1291  1  0.06954431  0.51190907  0.90342934  1
  Li  Li1292  1  0.06954431  0.76190907  0.15342934  1
  Li  Li1293  1  0.06954431  0.76190907  0.40342934  1
  Li  Li1294  1  0.06954431  0.76190907  0.65342934  1
  Li  Li1295  1  0.06954431  0.76190907  0.90342934  1
  Li  Li1296  1  0.31954430  0.01190907  0.15342934  1
  Li  Li1297  1  0.31954430  0.01190907  0.40342934  1
  Li  Li1298  1  0.31954430  0.01190907  0.65342934  1
  Li  Li1299  1  0.31954430  0.01190907  0.90342934  1
  Li  Li1300  1  0.31954430  0.26190907  0.15342934  1
  Li  Li1301  1  0.31954430  0.26190907  0.40342934  1
  Li  Li1302  1  0.31954430  0.26190907  0.65342934  1
  Li  Li1303  1  0.31954430  0.26190907  0.90342934  1
  Li  Li1304  1  0.31954430  0.51190907  0.15342934  1
  Li  Li1305  1  0.31954430  0.51190907  0.40342934  1
  Li  Li1306  1  0.31954430  0.51190907  0.65342934  1
  Li  Li1307  1  0.31954430  0.51190907  0.90342934  1
  Li  Li1308  1  0.31954430  0.76190907  0.15342934  1
  Li  Li1309  1  0.31954430  0.76190907  0.40342934  1
  Li  Li1310  1  0.31954430  0.76190907  0.65342934  1
  Li  Li1311  1  0.31954430  0.76190907  0.90342934  1
  Li  Li1312  1  0.56954430  0.01190907  0.15342934  1
  Li  Li1313  1  0.56954430  0.01190907  0.40342934  1
  Li  Li1314  1  0.56954430  0.01190907  0.65342934  1
  Li  Li1315  1  0.56954430  0.01190907  0.90342934  1
  Li  Li1316  1  0.56954430  0.26190907  0.15342934  1
  Li  Li1317  1  0.56954430  0.26190907  0.40342934  1
  Li  Li1318  1  0.56954430  0.26190907  0.65342934  1
  Li  Li1319  1  0.56954430  0.26190907  0.90342934  1
  Li  Li1320  1  0.56954430  0.51190907  0.15342934  1
  Li  Li1321  1  0.56954430  0.51190907  0.40342934  1
  Li  Li1322  1  0.56954430  0.51190907  0.65342934  1
  Li  Li1323  1  0.56954430  0.51190907  0.90342934  1
  Li  Li1324  1  0.56954430  0.76190907  0.15342934  1
  Li  Li1325  1  0.56954430  0.76190907  0.40342934  1
  Li  Li1326  1  0.56954430  0.76190907  0.65342934  1
  Li  Li1327  1  0.56954430  0.76190907  0.90342934  1
  Li  Li1328  1  0.81954431  0.01190907  0.15342934  1
  Li  Li1329  1  0.81954431  0.01190907  0.40342934  1
  Li  Li1330  1  0.81954431  0.01190907  0.65342934  1
  Li  Li1331  1  0.81954431  0.01190907  0.90342934  1
  Li  Li1332  1  0.81954431  0.26190907  0.15342934  1
  Li  Li1333  1  0.81954431  0.26190907  0.40342934  1
  Li  Li1334  1  0.81954431  0.26190907  0.65342934  1
  Li  Li1335  1  0.81954431  0.26190907  0.90342934  1
  Li  Li1336  1  0.81954431  0.51190907  0.15342934  1
  Li  Li1337  1  0.81954431  0.51190907  0.40342934  1
  Li  Li1338  1  0.81954431  0.51190907  0.65342934  1
  Li  Li1339  1  0.81954431  0.51190907  0.90342934  1
  Li  Li1340  1  0.81954431  0.76190907  0.15342934  1
  Li  Li1341  1  0.81954431  0.76190907  0.40342934  1
  Li  Li1342  1  0.81954431  0.76190907  0.65342934  1
  Li  Li1343  1  0.81954431  0.76190907  0.90342934  1
  Li  Li1344  1  0.19454430  0.11309093  0.09657066  1
  Li  Li1345  1  0.19454430  0.11309093  0.34657066  1
  Li  Li1346  1  0.19454430  0.11309093  0.59657066  1
  Li  Li1347  1  0.19454430  0.11309093  0.84657067  1
  Li  Li1348  1  0.19454430  0.36309093  0.09657066  1
  Li  Li1349  1  0.19454430  0.36309093  0.34657066  1
  Li  Li1350  1  0.19454430  0.36309093  0.59657066  1
  Li  Li1351  1  0.19454430  0.36309093  0.84657067  1
  Li  Li1352  1  0.19454430  0.61309093  0.09657066  1
  Li  Li1353  1  0.19454430  0.61309093  0.34657066  1
  Li  Li1354  1  0.19454430  0.61309093  0.59657066  1
  Li  Li1355  1  0.19454430  0.61309093  0.84657067  1
  Li  Li1356  1  0.19454430  0.86309093  0.09657066  1
  Li  Li1357  1  0.19454430  0.86309093  0.34657066  1
  Li  Li1358  1  0.19454430  0.86309093  0.59657066  1
  Li  Li1359  1  0.19454430  0.86309093  0.84657067  1
  Li  Li1360  1  0.44454430  0.11309093  0.09657066  1
  Li  Li1361  1  0.44454430  0.11309093  0.34657066  1
  Li  Li1362  1  0.44454430  0.11309093  0.59657066  1
  Li  Li1363  1  0.44454430  0.11309093  0.84657067  1
  Li  Li1364  1  0.44454430  0.36309093  0.09657066  1
  Li  Li1365  1  0.44454430  0.36309093  0.34657066  1
  Li  Li1366  1  0.44454430  0.36309093  0.59657066  1
  Li  Li1367  1  0.44454430  0.36309093  0.84657067  1
  Li  Li1368  1  0.44454430  0.61309093  0.09657066  1
  Li  Li1369  1  0.44454430  0.61309093  0.34657066  1
  Li  Li1370  1  0.44454430  0.61309093  0.59657066  1
  Li  Li1371  1  0.44454430  0.61309093  0.84657067  1
  Li  Li1372  1  0.44454430  0.86309093  0.09657066  1
  Li  Li1373  1  0.44454430  0.86309093  0.34657066  1
  Li  Li1374  1  0.44454430  0.86309093  0.59657066  1
  Li  Li1375  1  0.44454430  0.86309093  0.84657067  1
  Li  Li1376  1  0.69454430  0.11309093  0.09657066  1
  Li  Li1377  1  0.69454430  0.11309093  0.34657066  1
  Li  Li1378  1  0.69454430  0.11309093  0.59657066  1
  Li  Li1379  1  0.69454430  0.11309093  0.84657067  1
  Li  Li1380  1  0.69454430  0.36309093  0.09657066  1
  Li  Li1381  1  0.69454430  0.36309093  0.34657066  1
  Li  Li1382  1  0.69454430  0.36309093  0.59657066  1
  Li  Li1383  1  0.69454430  0.36309093  0.84657067  1
  Li  Li1384  1  0.69454430  0.61309093  0.09657066  1
  Li  Li1385  1  0.69454430  0.61309093  0.34657066  1
  Li  Li1386  1  0.69454430  0.61309093  0.59657066  1
  Li  Li1387  1  0.69454430  0.61309093  0.84657067  1
  Li  Li1388  1  0.69454430  0.86309093  0.09657066  1
  Li  Li1389  1  0.69454430  0.86309093  0.34657066  1
  Li  Li1390  1  0.69454430  0.86309093  0.59657066  1
  Li  Li1391  1  0.69454430  0.86309093  0.84657067  1
  Li  Li1392  1  0.94454430  0.11309093  0.09657066  1
  Li  Li1393  1  0.94454430  0.11309093  0.34657066  1
  Li  Li1394  1  0.94454430  0.11309093  0.59657066  1
  Li  Li1395  1  0.94454430  0.11309093  0.84657067  1
  Li  Li1396  1  0.94454430  0.36309093  0.09657066  1
  Li  Li1397  1  0.94454430  0.36309093  0.34657066  1
  Li  Li1398  1  0.94454430  0.36309093  0.59657066  1
  Li  Li1399  1  0.94454430  0.36309093  0.84657067  1
  Li  Li1400  1  0.94454430  0.61309093  0.09657066  1
  Li  Li1401  1  0.94454430  0.61309093  0.34657066  1
  Li  Li1402  1  0.94454430  0.61309093  0.59657066  1
  Li  Li1403  1  0.94454430  0.61309093  0.84657067  1
  Li  Li1404  1  0.94454430  0.86309093  0.09657066  1
  Li  Li1405  1  0.94454430  0.86309093  0.34657066  1
  Li  Li1406  1  0.94454430  0.86309093  0.59657066  1
  Li  Li1407  1  0.94454430  0.86309093  0.84657067  1
  Li  Li1408  1  0.18045569  0.13690907  0.22157067  1
  Li  Li1409  1  0.18045569  0.13690907  0.47157066  1
  Li  Li1410  1  0.18045569  0.13690907  0.72157066  1
  Li  Li1411  1  0.18045569  0.13690907  0.97157066  1
  Li  Li1412  1  0.18045569  0.38690907  0.22157067  1
  Li  Li1413  1  0.18045569  0.38690907  0.47157066  1
  Li  Li1414  1  0.18045569  0.38690907  0.72157066  1
  Li  Li1415  1  0.18045569  0.38690907  0.97157066  1
  Li  Li1416  1  0.18045569  0.63690907  0.22157067  1
  Li  Li1417  1  0.18045569  0.63690907  0.47157066  1
  Li  Li1418  1  0.18045569  0.63690907  0.72157066  1
  Li  Li1419  1  0.18045569  0.63690907  0.97157066  1
  Li  Li1420  1  0.18045569  0.88690907  0.22157067  1
  Li  Li1421  1  0.18045569  0.88690907  0.47157066  1
  Li  Li1422  1  0.18045569  0.88690907  0.72157066  1
  Li  Li1423  1  0.18045569  0.88690907  0.97157066  1
  Li  Li1424  1  0.43045570  0.13690907  0.22157067  1
  Li  Li1425  1  0.43045570  0.13690907  0.47157066  1
  Li  Li1426  1  0.43045570  0.13690907  0.72157066  1
  Li  Li1427  1  0.43045570  0.13690907  0.97157066  1
  Li  Li1428  1  0.43045570  0.38690907  0.22157067  1
  Li  Li1429  1  0.43045570  0.38690907  0.47157066  1
  Li  Li1430  1  0.43045570  0.38690907  0.72157066  1
  Li  Li1431  1  0.43045570  0.38690907  0.97157066  1
  Li  Li1432  1  0.43045570  0.63690907  0.22157067  1
  Li  Li1433  1  0.43045570  0.63690907  0.47157066  1
  Li  Li1434  1  0.43045570  0.63690907  0.72157066  1
  Li  Li1435  1  0.43045570  0.63690907  0.97157066  1
  Li  Li1436  1  0.43045570  0.88690907  0.22157067  1
  Li  Li1437  1  0.43045570  0.88690907  0.47157066  1
  Li  Li1438  1  0.43045570  0.88690907  0.72157066  1
  Li  Li1439  1  0.43045570  0.88690907  0.97157066  1
  Li  Li1440  1  0.68045570  0.13690907  0.22157067  1
  Li  Li1441  1  0.68045570  0.13690907  0.47157066  1
  Li  Li1442  1  0.68045570  0.13690907  0.72157066  1
  Li  Li1443  1  0.68045570  0.13690907  0.97157066  1
  Li  Li1444  1  0.68045570  0.38690907  0.22157067  1
  Li  Li1445  1  0.68045570  0.38690907  0.47157066  1
  Li  Li1446  1  0.68045570  0.38690907  0.72157066  1
  Li  Li1447  1  0.68045570  0.38690907  0.97157066  1
  Li  Li1448  1  0.68045570  0.63690907  0.22157067  1
  Li  Li1449  1  0.68045570  0.63690907  0.47157066  1
  Li  Li1450  1  0.68045570  0.63690907  0.72157066  1
  Li  Li1451  1  0.68045570  0.63690907  0.97157066  1
  Li  Li1452  1  0.68045570  0.88690907  0.22157067  1
  Li  Li1453  1  0.68045570  0.88690907  0.47157066  1
  Li  Li1454  1  0.68045570  0.88690907  0.72157066  1
  Li  Li1455  1  0.68045570  0.88690907  0.97157066  1
  Li  Li1456  1  0.93045570  0.13690907  0.22157067  1
  Li  Li1457  1  0.93045570  0.13690907  0.47157066  1
  Li  Li1458  1  0.93045570  0.13690907  0.72157066  1
  Li  Li1459  1  0.93045570  0.13690907  0.97157066  1
  Li  Li1460  1  0.93045570  0.38690907  0.22157067  1
  Li  Li1461  1  0.93045570  0.38690907  0.47157066  1
  Li  Li1462  1  0.93045570  0.38690907  0.72157066  1
  Li  Li1463  1  0.93045570  0.38690907  0.97157066  1
  Li  Li1464  1  0.93045570  0.63690907  0.22157067  1
  Li  Li1465  1  0.93045570  0.63690907  0.47157066  1
  Li  Li1466  1  0.93045570  0.63690907  0.72157066  1
  Li  Li1467  1  0.93045570  0.63690907  0.97157066  1
  Li  Li1468  1  0.93045570  0.88690907  0.22157067  1
  Li  Li1469  1  0.93045570  0.88690907  0.47157066  1
  Li  Li1470  1  0.93045570  0.88690907  0.72157066  1
  Li  Li1471  1  0.93045570  0.88690907  0.97157066  1
  Li  Li1472  1  0.05545569  0.23809093  0.02842933  1
  Li  Li1473  1  0.05545569  0.23809093  0.27842934  1
  Li  Li1474  1  0.05545569  0.23809093  0.52842934  1
  Li  Li1475  1  0.05545569  0.23809093  0.77842934  1
  Li  Li1476  1  0.05545569  0.48809093  0.02842933  1
  Li  Li1477  1  0.05545569  0.48809093  0.27842934  1
  Li  Li1478  1  0.05545569  0.48809093  0.52842934  1
  Li  Li1479  1  0.05545569  0.48809093  0.77842934  1
  Li  Li1480  1  0.05545569  0.73809093  0.02842933  1
  Li  Li1481  1  0.05545569  0.73809093  0.27842934  1
  Li  Li1482  1  0.05545569  0.73809093  0.52842934  1
  Li  Li1483  1  0.05545569  0.73809093  0.77842934  1
  Li  Li1484  1  0.05545569  0.98809093  0.02842933  1
  Li  Li1485  1  0.05545569  0.98809093  0.27842934  1
  Li  Li1486  1  0.05545569  0.98809093  0.52842934  1
  Li  Li1487  1  0.05545569  0.98809093  0.77842934  1
  Li  Li1488  1  0.30545569  0.23809093  0.02842933  1
  Li  Li1489  1  0.30545569  0.23809093  0.27842934  1
  Li  Li1490  1  0.30545569  0.23809093  0.52842934  1
  Li  Li1491  1  0.30545569  0.23809093  0.77842934  1
  Li  Li1492  1  0.30545569  0.48809093  0.02842933  1
  Li  Li1493  1  0.30545569  0.48809093  0.27842934  1
  Li  Li1494  1  0.30545569  0.48809093  0.52842934  1
  Li  Li1495  1  0.30545569  0.48809093  0.77842934  1
  Li  Li1496  1  0.30545569  0.73809093  0.02842933  1
  Li  Li1497  1  0.30545569  0.73809093  0.27842934  1
  Li  Li1498  1  0.30545569  0.73809093  0.52842934  1
  Li  Li1499  1  0.30545569  0.73809093  0.77842934  1
  Li  Li1500  1  0.30545569  0.98809093  0.02842933  1
  Li  Li1501  1  0.30545569  0.98809093  0.27842934  1
  Li  Li1502  1  0.30545569  0.98809093  0.52842934  1
  Li  Li1503  1  0.30545569  0.98809093  0.77842934  1
  Li  Li1504  1  0.55545570  0.23809093  0.02842933  1
  Li  Li1505  1  0.55545570  0.23809093  0.27842934  1
  Li  Li1506  1  0.55545570  0.23809093  0.52842934  1
  Li  Li1507  1  0.55545570  0.23809093  0.77842934  1
  Li  Li1508  1  0.55545570  0.48809093  0.02842933  1
  Li  Li1509  1  0.55545570  0.48809093  0.27842934  1
  Li  Li1510  1  0.55545570  0.48809093  0.52842934  1
  Li  Li1511  1  0.55545570  0.48809093  0.77842934  1
  Li  Li1512  1  0.55545570  0.73809093  0.02842933  1
  Li  Li1513  1  0.55545570  0.73809093  0.27842934  1
  Li  Li1514  1  0.55545570  0.73809093  0.52842934  1
  Li  Li1515  1  0.55545570  0.73809093  0.77842934  1
  Li  Li1516  1  0.55545570  0.98809093  0.02842933  1
  Li  Li1517  1  0.55545570  0.98809093  0.27842934  1
  Li  Li1518  1  0.55545570  0.98809093  0.52842934  1
  Li  Li1519  1  0.55545570  0.98809093  0.77842934  1
  Li  Li1520  1  0.80545570  0.23809093  0.02842933  1
  Li  Li1521  1  0.80545570  0.23809093  0.27842934  1
  Li  Li1522  1  0.80545570  0.23809093  0.52842934  1
  Li  Li1523  1  0.80545570  0.23809093  0.77842934  1
  Li  Li1524  1  0.80545570  0.48809093  0.02842933  1
  Li  Li1525  1  0.80545570  0.48809093  0.27842934  1
  Li  Li1526  1  0.80545570  0.48809093  0.52842934  1
  Li  Li1527  1  0.80545570  0.48809093  0.77842934  1
  Li  Li1528  1  0.80545570  0.73809093  0.02842933  1
  Li  Li1529  1  0.80545570  0.73809093  0.27842934  1
  Li  Li1530  1  0.80545570  0.73809093  0.52842934  1
  Li  Li1531  1  0.80545570  0.73809093  0.77842934  1
  Li  Li1532  1  0.80545570  0.98809093  0.02842933  1
  Li  Li1533  1  0.80545570  0.98809093  0.27842934  1
  Li  Li1534  1  0.80545570  0.98809093  0.52842934  1
  Li  Li1535  1  0.80545570  0.98809093  0.77842934  1
  Ca  Ca1536  1  0.07375697  0.17624303  0.05124303  1
  Ca  Ca1537  1  0.07375697  0.17624303  0.30124303  1
  Ca  Ca1538  1  0.07375697  0.17624303  0.55124303  1
  Ca  Ca1539  1  0.07375697  0.17624303  0.80124303  1
  Ca  Ca1540  1  0.07375697  0.42624303  0.05124303  1
  Ca  Ca1541  1  0.07375697  0.42624303  0.30124303  1
  Ca  Ca1542  1  0.07375697  0.42624303  0.55124303  1
  Ca  Ca1543  1  0.07375697  0.42624303  0.80124303  1
  Ca  Ca1544  1  0.07375697  0.67624303  0.05124303  1
  Ca  Ca1545  1  0.07375697  0.67624303  0.30124303  1
  Ca  Ca1546  1  0.07375697  0.67624303  0.55124303  1
  Ca  Ca1547  1  0.07375697  0.67624303  0.80124303  1
  Ca  Ca1548  1  0.07375697  0.92624303  0.05124303  1
  Ca  Ca1549  1  0.07375697  0.92624303  0.30124303  1
  Ca  Ca1550  1  0.07375697  0.92624303  0.55124303  1
  Ca  Ca1551  1  0.07375697  0.92624303  0.80124303  1
  Ca  Ca1552  1  0.32375697  0.17624303  0.05124303  1
  Ca  Ca1553  1  0.32375697  0.17624303  0.30124303  1
  Ca  Ca1554  1  0.32375697  0.17624303  0.55124303  1
  Ca  Ca1555  1  0.32375697  0.17624303  0.80124303  1
  Ca  Ca1556  1  0.32375697  0.42624303  0.05124303  1
  Ca  Ca1557  1  0.32375697  0.42624303  0.30124303  1
  Ca  Ca1558  1  0.32375697  0.42624303  0.55124303  1
  Ca  Ca1559  1  0.32375697  0.42624303  0.80124303  1
  Ca  Ca1560  1  0.32375697  0.67624303  0.05124303  1
  Ca  Ca1561  1  0.32375697  0.67624303  0.30124303  1
  Ca  Ca1562  1  0.32375697  0.67624303  0.55124303  1
  Ca  Ca1563  1  0.32375697  0.67624303  0.80124303  1
  Ca  Ca1564  1  0.32375697  0.92624303  0.05124303  1
  Ca  Ca1565  1  0.32375697  0.92624303  0.30124303  1
  Ca  Ca1566  1  0.32375697  0.92624303  0.55124303  1
  Ca  Ca1567  1  0.32375697  0.92624303  0.80124303  1
  Ca  Ca1568  1  0.57375697  0.17624303  0.05124303  1
  Ca  Ca1569  1  0.57375697  0.17624303  0.30124303  1
  Ca  Ca1570  1  0.57375697  0.17624303  0.55124303  1
  Ca  Ca1571  1  0.57375697  0.17624303  0.80124303  1
  Ca  Ca1572  1  0.57375697  0.42624303  0.05124303  1
  Ca  Ca1573  1  0.57375697  0.42624303  0.30124303  1
  Ca  Ca1574  1  0.57375697  0.42624303  0.55124303  1
  Ca  Ca1575  1  0.57375697  0.42624303  0.80124303  1
  Ca  Ca1576  1  0.57375697  0.67624303  0.05124303  1
  Ca  Ca1577  1  0.57375697  0.67624303  0.30124303  1
  Ca  Ca1578  1  0.57375697  0.67624303  0.55124303  1
  Ca  Ca1579  1  0.57375697  0.67624303  0.80124303  1
  Ca  Ca1580  1  0.57375697  0.92624303  0.05124303  1
  Ca  Ca1581  1  0.57375697  0.92624303  0.30124303  1
  Ca  Ca1582  1  0.57375697  0.92624303  0.55124303  1
  Ca  Ca1583  1  0.57375697  0.92624303  0.80124303  1
  Ca  Ca1584  1  0.82375697  0.17624303  0.05124303  1
  Ca  Ca1585  1  0.82375697  0.17624303  0.30124303  1
  Ca  Ca1586  1  0.82375697  0.17624303  0.55124303  1
  Ca  Ca1587  1  0.82375697  0.17624303  0.80124303  1
  Ca  Ca1588  1  0.82375697  0.42624303  0.05124303  1
  Ca  Ca1589  1  0.82375697  0.42624303  0.30124303  1
  Ca  Ca1590  1  0.82375697  0.42624303  0.55124303  1
  Ca  Ca1591  1  0.82375697  0.42624303  0.80124303  1
  Ca  Ca1592  1  0.82375697  0.67624303  0.05124303  1
  Ca  Ca1593  1  0.82375697  0.67624303  0.30124303  1
  Ca  Ca1594  1  0.82375697  0.67624303  0.55124303  1
  Ca  Ca1595  1  0.82375697  0.67624303  0.80124303  1
  Ca  Ca1596  1  0.82375697  0.92624303  0.05124303  1
  Ca  Ca1597  1  0.82375697  0.92624303  0.30124303  1
  Ca  Ca1598  1  0.82375697  0.92624303  0.55124303  1
  Ca  Ca1599  1  0.82375697  0.92624303  0.80124303  1
  Ca  Ca1600  1  0.17624303  0.05124303  0.07375697  1
  Ca  Ca1601  1  0.17624303  0.05124303  0.32375697  1
  Ca  Ca1602  1  0.17624303  0.05124303  0.57375697  1
  Ca  Ca1603  1  0.17624303  0.05124303  0.82375697  1
  Ca  Ca1604  1  0.17624303  0.30124303  0.07375697  1
  Ca  Ca1605  1  0.17624303  0.30124303  0.32375697  1
  Ca  Ca1606  1  0.17624303  0.30124303  0.57375697  1
  Ca  Ca1607  1  0.17624303  0.30124303  0.82375697  1
  Ca  Ca1608  1  0.17624303  0.55124303  0.07375697  1
  Ca  Ca1609  1  0.17624303  0.55124303  0.32375697  1
  Ca  Ca1610  1  0.17624303  0.55124303  0.57375697  1
  Ca  Ca1611  1  0.17624303  0.55124303  0.82375697  1
  Ca  Ca1612  1  0.17624303  0.80124303  0.07375697  1
  Ca  Ca1613  1  0.17624303  0.80124303  0.32375697  1
  Ca  Ca1614  1  0.17624303  0.80124303  0.57375697  1
  Ca  Ca1615  1  0.17624303  0.80124303  0.82375697  1
  Ca  Ca1616  1  0.42624303  0.05124303  0.07375697  1
  Ca  Ca1617  1  0.42624303  0.05124303  0.32375697  1
  Ca  Ca1618  1  0.42624303  0.05124303  0.57375697  1
  Ca  Ca1619  1  0.42624303  0.05124303  0.82375697  1
  Ca  Ca1620  1  0.42624303  0.30124303  0.07375697  1
  Ca  Ca1621  1  0.42624303  0.30124303  0.32375697  1
  Ca  Ca1622  1  0.42624303  0.30124303  0.57375697  1
  Ca  Ca1623  1  0.42624303  0.30124303  0.82375697  1
  Ca  Ca1624  1  0.42624303  0.55124303  0.07375697  1
  Ca  Ca1625  1  0.42624303  0.55124303  0.32375697  1
  Ca  Ca1626  1  0.42624303  0.55124303  0.57375697  1
  Ca  Ca1627  1  0.42624303  0.55124303  0.82375697  1
  Ca  Ca1628  1  0.42624303  0.80124303  0.07375697  1
  Ca  Ca1629  1  0.42624303  0.80124303  0.32375697  1
  Ca  Ca1630  1  0.42624303  0.80124303  0.57375697  1
  Ca  Ca1631  1  0.42624303  0.80124303  0.82375697  1
  Ca  Ca1632  1  0.67624303  0.05124303  0.07375697  1
  Ca  Ca1633  1  0.67624303  0.05124303  0.32375697  1
  Ca  Ca1634  1  0.67624303  0.05124303  0.57375697  1
  Ca  Ca1635  1  0.67624303  0.05124303  0.82375697  1
  Ca  Ca1636  1  0.67624303  0.30124303  0.07375697  1
  Ca  Ca1637  1  0.67624303  0.30124303  0.32375697  1
  Ca  Ca1638  1  0.67624303  0.30124303  0.57375697  1
  Ca  Ca1639  1  0.67624303  0.30124303  0.82375697  1
  Ca  Ca1640  1  0.67624303  0.55124303  0.07375697  1
  Ca  Ca1641  1  0.67624303  0.55124303  0.32375697  1
  Ca  Ca1642  1  0.67624303  0.55124303  0.57375697  1
  Ca  Ca1643  1  0.67624303  0.55124303  0.82375697  1
  Ca  Ca1644  1  0.67624303  0.80124303  0.07375697  1
  Ca  Ca1645  1  0.67624303  0.80124303  0.32375697  1
  Ca  Ca1646  1  0.67624303  0.80124303  0.57375697  1
  Ca  Ca1647  1  0.67624303  0.80124303  0.82375697  1
  Ca  Ca1648  1  0.92624303  0.05124303  0.07375697  1
  Ca  Ca1649  1  0.92624303  0.05124303  0.32375697  1
  Ca  Ca1650  1  0.92624303  0.05124303  0.57375697  1
  Ca  Ca1651  1  0.92624303  0.05124303  0.82375697  1
  Ca  Ca1652  1  0.92624303  0.30124303  0.07375697  1
  Ca  Ca1653  1  0.92624303  0.30124303  0.32375697  1
  Ca  Ca1654  1  0.92624303  0.30124303  0.57375697  1
  Ca  Ca1655  1  0.92624303  0.30124303  0.82375697  1
  Ca  Ca1656  1  0.92624303  0.55124303  0.07375697  1
  Ca  Ca1657  1  0.92624303  0.55124303  0.32375697  1
  Ca  Ca1658  1  0.92624303  0.55124303  0.57375697  1
  Ca  Ca1659  1  0.92624303  0.55124303  0.82375697  1
  Ca  Ca1660  1  0.92624303  0.80124303  0.07375697  1
  Ca  Ca1661  1  0.92624303  0.80124303  0.32375697  1
  Ca  Ca1662  1  0.92624303  0.80124303  0.57375697  1
  Ca  Ca1663  1  0.92624303  0.80124303  0.82375697  1
  Ca  Ca1664  1  0.05124303  0.07375697  0.17624303  1
  Ca  Ca1665  1  0.05124303  0.07375697  0.42624303  1
  Ca  Ca1666  1  0.05124303  0.07375697  0.67624303  1
  Ca  Ca1667  1  0.05124303  0.07375697  0.92624303  1
  Ca  Ca1668  1  0.05124303  0.32375697  0.17624303  1
  Ca  Ca1669  1  0.05124303  0.32375697  0.42624303  1
  Ca  Ca1670  1  0.05124303  0.32375697  0.67624303  1
  Ca  Ca1671  1  0.05124303  0.32375697  0.92624303  1
  Ca  Ca1672  1  0.05124303  0.57375697  0.17624303  1
  Ca  Ca1673  1  0.05124303  0.57375697  0.42624303  1
  Ca  Ca1674  1  0.05124303  0.57375697  0.67624303  1
  Ca  Ca1675  1  0.05124303  0.57375697  0.92624303  1
  Ca  Ca1676  1  0.05124303  0.82375697  0.17624303  1
  Ca  Ca1677  1  0.05124303  0.82375697  0.42624303  1
  Ca  Ca1678  1  0.05124303  0.82375697  0.67624303  1
  Ca  Ca1679  1  0.05124303  0.82375697  0.92624303  1
  Ca  Ca1680  1  0.30124303  0.07375697  0.17624303  1
  Ca  Ca1681  1  0.30124303  0.07375697  0.42624303  1
  Ca  Ca1682  1  0.30124303  0.07375697  0.67624303  1
  Ca  Ca1683  1  0.30124303  0.07375697  0.92624303  1
  Ca  Ca1684  1  0.30124303  0.32375697  0.17624303  1
  Ca  Ca1685  1  0.30124303  0.32375697  0.42624303  1
  Ca  Ca1686  1  0.30124303  0.32375697  0.67624303  1
  Ca  Ca1687  1  0.30124303  0.32375697  0.92624303  1
  Ca  Ca1688  1  0.30124303  0.57375697  0.17624303  1
  Ca  Ca1689  1  0.30124303  0.57375697  0.42624303  1
  Ca  Ca1690  1  0.30124303  0.57375697  0.67624303  1
  Ca  Ca1691  1  0.30124303  0.57375697  0.92624303  1
  Ca  Ca1692  1  0.30124303  0.82375697  0.17624303  1
  Ca  Ca1693  1  0.30124303  0.82375697  0.42624303  1
  Ca  Ca1694  1  0.30124303  0.82375697  0.67624303  1
  Ca  Ca1695  1  0.30124303  0.82375697  0.92624303  1
  Ca  Ca1696  1  0.55124303  0.07375697  0.17624303  1
  Ca  Ca1697  1  0.55124303  0.07375697  0.42624303  1
  Ca  Ca1698  1  0.55124303  0.07375697  0.67624303  1
  Ca  Ca1699  1  0.55124303  0.07375697  0.92624303  1
  Ca  Ca1700  1  0.55124303  0.32375697  0.17624303  1
  Ca  Ca1701  1  0.55124303  0.32375697  0.42624303  1
  Ca  Ca1702  1  0.55124303  0.32375697  0.67624303  1
  Ca  Ca1703  1  0.55124303  0.32375697  0.92624303  1
  Ca  Ca1704  1  0.55124303  0.57375697  0.17624303  1
  Ca  Ca1705  1  0.55124303  0.57375697  0.42624303  1
  Ca  Ca1706  1  0.55124303  0.57375697  0.67624303  1
  Ca  Ca1707  1  0.55124303  0.57375697  0.92624303  1
  Ca  Ca1708  1  0.55124303  0.82375697  0.17624303  1
  Ca  Ca1709  1  0.55124303  0.82375697  0.42624303  1
  Ca  Ca1710  1  0.55124303  0.82375697  0.67624303  1
  Ca  Ca1711  1  0.55124303  0.82375697  0.92624303  1
  Ca  Ca1712  1  0.80124303  0.07375697  0.17624303  1
  Ca  Ca1713  1  0.80124303  0.07375697  0.42624303  1
  Ca  Ca1714  1  0.80124303  0.07375697  0.67624303  1
  Ca  Ca1715  1  0.80124303  0.07375697  0.92624303  1
  Ca  Ca1716  1  0.80124303  0.32375697  0.17624303  1
  Ca  Ca1717  1  0.80124303  0.32375697  0.42624303  1
  Ca  Ca1718  1  0.80124303  0.32375697  0.67624303  1
  Ca  Ca1719  1  0.80124303  0.32375697  0.92624303  1
  Ca  Ca1720  1  0.80124303  0.57375697  0.17624303  1
  Ca  Ca1721  1  0.80124303  0.57375697  0.42624303  1
  Ca  Ca1722  1  0.80124303  0.57375697  0.67624303  1
  Ca  Ca1723  1  0.80124303  0.57375697  0.92624303  1
  Ca  Ca1724  1  0.80124303  0.82375697  0.17624303  1
  Ca  Ca1725  1  0.80124303  0.82375697  0.42624303  1
  Ca  Ca1726  1  0.80124303  0.82375697  0.67624303  1
  Ca  Ca1727  1  0.80124303  0.82375697  0.92624303  1
  Ca  Ca1728  1  0.19875697  0.19875697  0.19875697  1
  Ca  Ca1729  1  0.19875697  0.19875697  0.44875697  1
  Ca  Ca1730  1  0.19875697  0.19875697  0.69875697  1
  Ca  Ca1731  1  0.19875697  0.19875697  0.94875697  1
  Ca  Ca1732  1  0.19875697  0.44875697  0.19875697  1
  Ca  Ca1733  1  0.19875697  0.44875697  0.44875697  1
  Ca  Ca1734  1  0.19875697  0.44875697  0.69875697  1
  Ca  Ca1735  1  0.19875697  0.44875697  0.94875697  1
  Ca  Ca1736  1  0.19875697  0.69875697  0.19875697  1
  Ca  Ca1737  1  0.19875697  0.69875697  0.44875697  1
  Ca  Ca1738  1  0.19875697  0.69875697  0.69875697  1
  Ca  Ca1739  1  0.19875697  0.69875697  0.94875697  1
  Ca  Ca1740  1  0.19875697  0.94875697  0.19875697  1
  Ca  Ca1741  1  0.19875697  0.94875697  0.44875697  1
  Ca  Ca1742  1  0.19875697  0.94875697  0.69875697  1
  Ca  Ca1743  1  0.19875697  0.94875697  0.94875697  1
  Ca  Ca1744  1  0.44875697  0.19875697  0.19875697  1
  Ca  Ca1745  1  0.44875697  0.19875697  0.44875697  1
  Ca  Ca1746  1  0.44875697  0.19875697  0.69875697  1
  Ca  Ca1747  1  0.44875697  0.19875697  0.94875697  1
  Ca  Ca1748  1  0.44875697  0.44875697  0.19875697  1
  Ca  Ca1749  1  0.44875697  0.44875697  0.44875697  1
  Ca  Ca1750  1  0.44875697  0.44875697  0.69875697  1
  Ca  Ca1751  1  0.44875697  0.44875697  0.94875697  1
  Ca  Ca1752  1  0.44875697  0.69875697  0.19875697  1
  Ca  Ca1753  1  0.44875697  0.69875697  0.44875697  1
  Ca  Ca1754  1  0.44875697  0.69875697  0.69875697  1
  Ca  Ca1755  1  0.44875697  0.69875697  0.94875697  1
  Ca  Ca1756  1  0.44875697  0.94875697  0.19875697  1
  Ca  Ca1757  1  0.44875697  0.94875697  0.44875697  1
  Ca  Ca1758  1  0.44875697  0.94875697  0.69875697  1
  Ca  Ca1759  1  0.44875697  0.94875697  0.94875697  1
  Ca  Ca1760  1  0.69875697  0.19875697  0.19875697  1
  Ca  Ca1761  1  0.69875697  0.19875697  0.44875697  1
  Ca  Ca1762  1  0.69875697  0.19875697  0.69875697  1
  Ca  Ca1763  1  0.69875697  0.19875697  0.94875697  1
  Ca  Ca1764  1  0.69875697  0.44875697  0.19875697  1
  Ca  Ca1765  1  0.69875697  0.44875697  0.44875697  1
  Ca  Ca1766  1  0.69875697  0.44875697  0.69875697  1
  Ca  Ca1767  1  0.69875697  0.44875697  0.94875697  1
  Ca  Ca1768  1  0.69875697  0.69875697  0.19875697  1
  Ca  Ca1769  1  0.69875697  0.69875697  0.44875697  1
  Ca  Ca1770  1  0.69875697  0.69875697  0.69875697  1
  Ca  Ca1771  1  0.69875697  0.69875697  0.94875697  1
  Ca  Ca1772  1  0.69875697  0.94875697  0.19875697  1
  Ca  Ca1773  1  0.69875697  0.94875697  0.44875697  1
  Ca  Ca1774  1  0.69875697  0.94875697  0.69875697  1
  Ca  Ca1775  1  0.69875697  0.94875697  0.94875697  1
  Ca  Ca1776  1  0.94875697  0.19875697  0.19875697  1
  Ca  Ca1777  1  0.94875697  0.19875697  0.44875697  1
  Ca  Ca1778  1  0.94875697  0.19875697  0.69875697  1
  Ca  Ca1779  1  0.94875697  0.19875697  0.94875697  1
  Ca  Ca1780  1  0.94875697  0.44875697  0.19875697  1
  Ca  Ca1781  1  0.94875697  0.44875697  0.44875697  1
  Ca  Ca1782  1  0.94875697  0.44875697  0.69875697  1
  Ca  Ca1783  1  0.94875697  0.44875697  0.94875697  1
  Ca  Ca1784  1  0.94875697  0.69875697  0.19875697  1
  Ca  Ca1785  1  0.94875697  0.69875697  0.44875697  1
  Ca  Ca1786  1  0.94875697  0.69875697  0.69875697  1
  Ca  Ca1787  1  0.94875697  0.69875697  0.94875697  1
  Ca  Ca1788  1  0.94875697  0.94875697  0.19875697  1
  Ca  Ca1789  1  0.94875697  0.94875697  0.44875697  1
  Ca  Ca1790  1  0.94875697  0.94875697  0.69875697  1
  Ca  Ca1791  1  0.94875697  0.94875697  0.94875697  1
  Ca  Ca1792  1  0.17624303  0.07375697  0.19875697  1
  Ca  Ca1793  1  0.17624303  0.07375697  0.44875697  1
  Ca  Ca1794  1  0.17624303  0.07375697  0.69875697  1
  Ca  Ca1795  1  0.17624303  0.07375697  0.94875697  1
  Ca  Ca1796  1  0.17624303  0.32375697  0.19875697  1
  Ca  Ca1797  1  0.17624303  0.32375697  0.44875697  1
  Ca  Ca1798  1  0.17624303  0.32375697  0.69875697  1
  Ca  Ca1799  1  0.17624303  0.32375697  0.94875697  1
  Ca  Ca1800  1  0.17624303  0.57375697  0.19875697  1
  Ca  Ca1801  1  0.17624303  0.57375697  0.44875697  1
  Ca  Ca1802  1  0.17624303  0.57375697  0.69875697  1
  Ca  Ca1803  1  0.17624303  0.57375697  0.94875697  1
  Ca  Ca1804  1  0.17624303  0.82375697  0.19875697  1
  Ca  Ca1805  1  0.17624303  0.82375697  0.44875697  1
  Ca  Ca1806  1  0.17624303  0.82375697  0.69875697  1
  Ca  Ca1807  1  0.17624303  0.82375697  0.94875697  1
  Ca  Ca1808  1  0.42624303  0.07375697  0.19875697  1
  Ca  Ca1809  1  0.42624303  0.07375697  0.44875697  1
  Ca  Ca1810  1  0.42624303  0.07375697  0.69875697  1
  Ca  Ca1811  1  0.42624303  0.07375697  0.94875697  1
  Ca  Ca1812  1  0.42624303  0.32375697  0.19875697  1
  Ca  Ca1813  1  0.42624303  0.32375697  0.44875697  1
  Ca  Ca1814  1  0.42624303  0.32375697  0.69875697  1
  Ca  Ca1815  1  0.42624303  0.32375697  0.94875697  1
  Ca  Ca1816  1  0.42624303  0.57375697  0.19875697  1
  Ca  Ca1817  1  0.42624303  0.57375697  0.44875697  1
  Ca  Ca1818  1  0.42624303  0.57375697  0.69875697  1
  Ca  Ca1819  1  0.42624303  0.57375697  0.94875697  1
  Ca  Ca1820  1  0.42624303  0.82375697  0.19875697  1
  Ca  Ca1821  1  0.42624303  0.82375697  0.44875697  1
  Ca  Ca1822  1  0.42624303  0.82375697  0.69875697  1
  Ca  Ca1823  1  0.42624303  0.82375697  0.94875697  1
  Ca  Ca1824  1  0.67624303  0.07375697  0.19875697  1
  Ca  Ca1825  1  0.67624303  0.07375697  0.44875697  1
  Ca  Ca1826  1  0.67624303  0.07375697  0.69875697  1
  Ca  Ca1827  1  0.67624303  0.07375697  0.94875697  1
  Ca  Ca1828  1  0.67624303  0.32375697  0.19875697  1
  Ca  Ca1829  1  0.67624303  0.32375697  0.44875697  1
  Ca  Ca1830  1  0.67624303  0.32375697  0.69875697  1
  Ca  Ca1831  1  0.67624303  0.32375697  0.94875697  1
  Ca  Ca1832  1  0.67624303  0.57375697  0.19875697  1
  Ca  Ca1833  1  0.67624303  0.57375697  0.44875697  1
  Ca  Ca1834  1  0.67624303  0.57375697  0.69875697  1
  Ca  Ca1835  1  0.67624303  0.57375697  0.94875697  1
  Ca  Ca1836  1  0.67624303  0.82375697  0.19875697  1
  Ca  Ca1837  1  0.67624303  0.82375697  0.44875697  1
  Ca  Ca1838  1  0.67624303  0.82375697  0.69875697  1
  Ca  Ca1839  1  0.67624303  0.82375697  0.94875697  1
  Ca  Ca1840  1  0.92624303  0.07375697  0.19875697  1
  Ca  Ca1841  1  0.92624303  0.07375697  0.44875697  1
  Ca  Ca1842  1  0.92624303  0.07375697  0.69875697  1
  Ca  Ca1843  1  0.92624303  0.07375697  0.94875697  1
  Ca  Ca1844  1  0.92624303  0.32375697  0.19875697  1
  Ca  Ca1845  1  0.92624303  0.32375697  0.44875697  1
  Ca  Ca1846  1  0.92624303  0.32375697  0.69875697  1
  Ca  Ca1847  1  0.92624303  0.32375697  0.94875697  1
  Ca  Ca1848  1  0.92624303  0.57375697  0.19875697  1
  Ca  Ca1849  1  0.92624303  0.57375697  0.44875697  1
  Ca  Ca1850  1  0.92624303  0.57375697  0.69875697  1
  Ca  Ca1851  1  0.92624303  0.57375697  0.94875697  1
  Ca  Ca1852  1  0.92624303  0.82375697  0.19875697  1
  Ca  Ca1853  1  0.92624303  0.82375697  0.44875697  1
  Ca  Ca1854  1  0.92624303  0.82375697  0.69875697  1
  Ca  Ca1855  1  0.92624303  0.82375697  0.94875697  1
  Ca  Ca1856  1  0.07375697  0.19875697  0.17624303  1
  Ca  Ca1857  1  0.07375697  0.19875697  0.42624303  1
  Ca  Ca1858  1  0.07375697  0.19875697  0.67624303  1
  Ca  Ca1859  1  0.07375697  0.19875697  0.92624303  1
  Ca  Ca1860  1  0.07375697  0.44875697  0.17624303  1
  Ca  Ca1861  1  0.07375697  0.44875697  0.42624303  1
  Ca  Ca1862  1  0.07375697  0.44875697  0.67624303  1
  Ca  Ca1863  1  0.07375697  0.44875697  0.92624303  1
  Ca  Ca1864  1  0.07375697  0.69875697  0.17624303  1
  Ca  Ca1865  1  0.07375697  0.69875697  0.42624303  1
  Ca  Ca1866  1  0.07375697  0.69875697  0.67624303  1
  Ca  Ca1867  1  0.07375697  0.69875697  0.92624303  1
  Ca  Ca1868  1  0.07375697  0.94875697  0.17624303  1
  Ca  Ca1869  1  0.07375697  0.94875697  0.42624303  1
  Ca  Ca1870  1  0.07375697  0.94875697  0.67624303  1
  Ca  Ca1871  1  0.07375697  0.94875697  0.92624303  1
  Ca  Ca1872  1  0.32375697  0.19875697  0.17624303  1
  Ca  Ca1873  1  0.32375697  0.19875697  0.42624303  1
  Ca  Ca1874  1  0.32375697  0.19875697  0.67624303  1
  Ca  Ca1875  1  0.32375697  0.19875697  0.92624303  1
  Ca  Ca1876  1  0.32375697  0.44875697  0.17624303  1
  Ca  Ca1877  1  0.32375697  0.44875697  0.42624303  1
  Ca  Ca1878  1  0.32375697  0.44875697  0.67624303  1
  Ca  Ca1879  1  0.32375697  0.44875697  0.92624303  1
  Ca  Ca1880  1  0.32375697  0.69875697  0.17624303  1
  Ca  Ca1881  1  0.32375697  0.69875697  0.42624303  1
  Ca  Ca1882  1  0.32375697  0.69875697  0.67624303  1
  Ca  Ca1883  1  0.32375697  0.69875697  0.92624303  1
  Ca  Ca1884  1  0.32375697  0.94875697  0.17624303  1
  Ca  Ca1885  1  0.32375697  0.94875697  0.42624303  1
  Ca  Ca1886  1  0.32375697  0.94875697  0.67624303  1
  Ca  Ca1887  1  0.32375697  0.94875697  0.92624303  1
  Ca  Ca1888  1  0.57375697  0.19875697  0.17624303  1
  Ca  Ca1889  1  0.57375697  0.19875697  0.42624303  1
  Ca  Ca1890  1  0.57375697  0.19875697  0.67624303  1
  Ca  Ca1891  1  0.57375697  0.19875697  0.92624303  1
  Ca  Ca1892  1  0.57375697  0.44875697  0.17624303  1
  Ca  Ca1893  1  0.57375697  0.44875697  0.42624303  1
  Ca  Ca1894  1  0.57375697  0.44875697  0.67624303  1
  Ca  Ca1895  1  0.57375697  0.44875697  0.92624303  1
  Ca  Ca1896  1  0.57375697  0.69875697  0.17624303  1
  Ca  Ca1897  1  0.57375697  0.69875697  0.42624303  1
  Ca  Ca1898  1  0.57375697  0.69875697  0.67624303  1
  Ca  Ca1899  1  0.57375697  0.69875697  0.92624303  1
  Ca  Ca1900  1  0.57375697  0.94875697  0.17624303  1
  Ca  Ca1901  1  0.57375697  0.94875697  0.42624303  1
  Ca  Ca1902  1  0.57375697  0.94875697  0.67624303  1
  Ca  Ca1903  1  0.57375697  0.94875697  0.92624303  1
  Ca  Ca1904  1  0.82375697  0.19875697  0.17624303  1
  Ca  Ca1905  1  0.82375697  0.19875697  0.42624303  1
  Ca  Ca1906  1  0.82375697  0.19875697  0.67624303  1
  Ca  Ca1907  1  0.82375697  0.19875697  0.92624303  1
  Ca  Ca1908  1  0.82375697  0.44875697  0.17624303  1
  Ca  Ca1909  1  0.82375697  0.44875697  0.42624303  1
  Ca  Ca1910  1  0.82375697  0.44875697  0.67624303  1
  Ca  Ca1911  1  0.82375697  0.44875697  0.92624303  1
  Ca  Ca1912  1  0.82375697  0.69875697  0.17624303  1
  Ca  Ca1913  1  0.82375697  0.69875697  0.42624303  1
  Ca  Ca1914  1  0.82375697  0.69875697  0.67624303  1
  Ca  Ca1915  1  0.82375697  0.69875697  0.92624303  1
  Ca  Ca1916  1  0.82375697  0.94875697  0.17624303  1
  Ca  Ca1917  1  0.82375697  0.94875697  0.42624303  1
  Ca  Ca1918  1  0.82375697  0.94875697  0.67624303  1
  Ca  Ca1919  1  0.82375697  0.94875697  0.92624303  1
  Ca  Ca1920  1  0.19875697  0.17624303  0.07375697  1
  Ca  Ca1921  1  0.19875697  0.17624303  0.32375697  1
  Ca  Ca1922  1  0.19875697  0.17624303  0.57375697  1
  Ca  Ca1923  1  0.19875697  0.17624303  0.82375697  1
  Ca  Ca1924  1  0.19875697  0.42624303  0.07375697  1
  Ca  Ca1925  1  0.19875697  0.42624303  0.32375697  1
  Ca  Ca1926  1  0.19875697  0.42624303  0.57375697  1
  Ca  Ca1927  1  0.19875697  0.42624303  0.82375697  1
  Ca  Ca1928  1  0.19875697  0.67624303  0.07375697  1
  Ca  Ca1929  1  0.19875697  0.67624303  0.32375697  1
  Ca  Ca1930  1  0.19875697  0.67624303  0.57375697  1
  Ca  Ca1931  1  0.19875697  0.67624303  0.82375697  1
  Ca  Ca1932  1  0.19875697  0.92624303  0.07375697  1
  Ca  Ca1933  1  0.19875697  0.92624303  0.32375697  1
  Ca  Ca1934  1  0.19875697  0.92624303  0.57375697  1
  Ca  Ca1935  1  0.19875697  0.92624303  0.82375697  1
  Ca  Ca1936  1  0.44875697  0.17624303  0.07375697  1
  Ca  Ca1937  1  0.44875697  0.17624303  0.32375697  1
  Ca  Ca1938  1  0.44875697  0.17624303  0.57375697  1
  Ca  Ca1939  1  0.44875697  0.17624303  0.82375697  1
  Ca  Ca1940  1  0.44875697  0.42624303  0.07375697  1
  Ca  Ca1941  1  0.44875697  0.42624303  0.32375697  1
  Ca  Ca1942  1  0.44875697  0.42624303  0.57375697  1
  Ca  Ca1943  1  0.44875697  0.42624303  0.82375697  1
  Ca  Ca1944  1  0.44875697  0.67624303  0.07375697  1
  Ca  Ca1945  1  0.44875697  0.67624303  0.32375697  1
  Ca  Ca1946  1  0.44875697  0.67624303  0.57375697  1
  Ca  Ca1947  1  0.44875697  0.67624303  0.82375697  1
  Ca  Ca1948  1  0.44875697  0.92624303  0.07375697  1
  Ca  Ca1949  1  0.44875697  0.92624303  0.32375697  1
  Ca  Ca1950  1  0.44875697  0.92624303  0.57375697  1
  Ca  Ca1951  1  0.44875697  0.92624303  0.82375697  1
  Ca  Ca1952  1  0.69875697  0.17624303  0.07375697  1
  Ca  Ca1953  1  0.69875697  0.17624303  0.32375697  1
  Ca  Ca1954  1  0.69875697  0.17624303  0.57375697  1
  Ca  Ca1955  1  0.69875697  0.17624303  0.82375697  1
  Ca  Ca1956  1  0.69875697  0.42624303  0.07375697  1
  Ca  Ca1957  1  0.69875697  0.42624303  0.32375697  1
  Ca  Ca1958  1  0.69875697  0.42624303  0.57375697  1
  Ca  Ca1959  1  0.69875697  0.42624303  0.82375697  1
  Ca  Ca1960  1  0.69875697  0.67624303  0.07375697  1
  Ca  Ca1961  1  0.69875697  0.67624303  0.32375697  1
  Ca  Ca1962  1  0.69875697  0.67624303  0.57375697  1
  Ca  Ca1963  1  0.69875697  0.67624303  0.82375697  1
  Ca  Ca1964  1  0.69875697  0.92624303  0.07375697  1
  Ca  Ca1965  1  0.69875697  0.92624303  0.32375697  1
  Ca  Ca1966  1  0.69875697  0.92624303  0.57375697  1
  Ca  Ca1967  1  0.69875697  0.92624303  0.82375697  1
  Ca  Ca1968  1  0.94875697  0.17624303  0.07375697  1
  Ca  Ca1969  1  0.94875697  0.17624303  0.32375697  1
  Ca  Ca1970  1  0.94875697  0.17624303  0.57375697  1
  Ca  Ca1971  1  0.94875697  0.17624303  0.82375697  1
  Ca  Ca1972  1  0.94875697  0.42624303  0.07375697  1
  Ca  Ca1973  1  0.94875697  0.42624303  0.32375697  1
  Ca  Ca1974  1  0.94875697  0.42624303  0.57375697  1
  Ca  Ca1975  1  0.94875697  0.42624303  0.82375697  1
  Ca  Ca1976  1  0.94875697  0.67624303  0.07375697  1
  Ca  Ca1977  1  0.94875697  0.67624303  0.32375697  1
  Ca  Ca1978  1  0.94875697  0.67624303  0.57375697  1
  Ca  Ca1979  1  0.94875697  0.67624303  0.82375697  1
  Ca  Ca1980  1  0.94875697  0.92624303  0.07375697  1
  Ca  Ca1981  1  0.94875697  0.92624303  0.32375697  1
  Ca  Ca1982  1  0.94875697  0.92624303  0.57375697  1
  Ca  Ca1983  1  0.94875697  0.92624303  0.82375697  1
  Ca  Ca1984  1  0.05124303  0.05124303  0.05124303  1
  Ca  Ca1985  1  0.05124303  0.05124303  0.30124303  1
  Ca  Ca1986  1  0.05124303  0.05124303  0.55124303  1
  Ca  Ca1987  1  0.05124303  0.05124303  0.80124303  1
  Ca  Ca1988  1  0.05124303  0.30124303  0.05124303  1
  Ca  Ca1989  1  0.05124303  0.30124303  0.30124303  1
  Ca  Ca1990  1  0.05124303  0.30124303  0.55124303  1
  Ca  Ca1991  1  0.05124303  0.30124303  0.80124303  1
  Ca  Ca1992  1  0.05124303  0.55124303  0.05124303  1
  Ca  Ca1993  1  0.05124303  0.55124303  0.30124303  1
  Ca  Ca1994  1  0.05124303  0.55124303  0.55124303  1
  Ca  Ca1995  1  0.05124303  0.55124303  0.80124303  1
  Ca  Ca1996  1  0.05124303  0.80124303  0.05124303  1
  Ca  Ca1997  1  0.05124303  0.80124303  0.30124303  1
  Ca  Ca1998  1  0.05124303  0.80124303  0.55124303  1
  Ca  Ca1999  1  0.05124303  0.80124303  0.80124303  1
  Ca  Ca2000  1  0.30124303  0.05124303  0.05124303  1
  Ca  Ca2001  1  0.30124303  0.05124303  0.30124303  1
  Ca  Ca2002  1  0.30124303  0.05124303  0.55124303  1
  Ca  Ca2003  1  0.30124303  0.05124303  0.80124303  1
  Ca  Ca2004  1  0.30124303  0.30124303  0.05124303  1
  Ca  Ca2005  1  0.30124303  0.30124303  0.30124303  1
  Ca  Ca2006  1  0.30124303  0.30124303  0.55124303  1
  Ca  Ca2007  1  0.30124303  0.30124303  0.80124303  1
  Ca  Ca2008  1  0.30124303  0.55124303  0.05124303  1
  Ca  Ca2009  1  0.30124303  0.55124303  0.30124303  1
  Ca  Ca2010  1  0.30124303  0.55124303  0.55124303  1
  Ca  Ca2011  1  0.30124303  0.55124303  0.80124303  1
  Ca  Ca2012  1  0.30124303  0.80124303  0.05124303  1
  Ca  Ca2013  1  0.30124303  0.80124303  0.30124303  1
  Ca  Ca2014  1  0.30124303  0.80124303  0.55124303  1
  Ca  Ca2015  1  0.30124303  0.80124303  0.80124303  1
  Ca  Ca2016  1  0.55124303  0.05124303  0.05124303  1
  Ca  Ca2017  1  0.55124303  0.05124303  0.30124303  1
  Ca  Ca2018  1  0.55124303  0.05124303  0.55124303  1
  Ca  Ca2019  1  0.55124303  0.05124303  0.80124303  1
  Ca  Ca2020  1  0.55124303  0.30124303  0.05124303  1
  Ca  Ca2021  1  0.55124303  0.30124303  0.30124303  1
  Ca  Ca2022  1  0.55124303  0.30124303  0.55124303  1
  Ca  Ca2023  1  0.55124303  0.30124303  0.80124303  1
  Ca  Ca2024  1  0.55124303  0.55124303  0.05124303  1
  Ca  Ca2025  1  0.55124303  0.55124303  0.30124303  1
  Ca  Ca2026  1  0.55124303  0.55124303  0.55124303  1
  Ca  Ca2027  1  0.55124303  0.55124303  0.80124303  1
  Ca  Ca2028  1  0.55124303  0.80124303  0.05124303  1
  Ca  Ca2029  1  0.55124303  0.80124303  0.30124303  1
  Ca  Ca2030  1  0.55124303  0.80124303  0.55124303  1
  Ca  Ca2031  1  0.55124303  0.80124303  0.80124303  1
  Ca  Ca2032  1  0.80124303  0.05124303  0.05124303  1
  Ca  Ca2033  1  0.80124303  0.05124303  0.30124303  1
  Ca  Ca2034  1  0.80124303  0.05124303  0.55124303  1
  Ca  Ca2035  1  0.80124303  0.05124303  0.80124303  1
  Ca  Ca2036  1  0.80124303  0.30124303  0.05124303  1
  Ca  Ca2037  1  0.80124303  0.30124303  0.30124303  1
  Ca  Ca2038  1  0.80124303  0.30124303  0.55124303  1
  Ca  Ca2039  1  0.80124303  0.30124303  0.80124303  1
  Ca  Ca2040  1  0.80124303  0.55124303  0.05124303  1
  Ca  Ca2041  1  0.80124303  0.55124303  0.30124303  1
  Ca  Ca2042  1  0.80124303  0.55124303  0.55124303  1
  Ca  Ca2043  1  0.80124303  0.55124303  0.80124303  1
  Ca  Ca2044  1  0.80124303  0.80124303  0.05124303  1
  Ca  Ca2045  1  0.80124303  0.80124303  0.30124303  1
  Ca  Ca2046  1  0.80124303  0.80124303  0.55124303  1
  Ca  Ca2047  1  0.80124303  0.80124303  0.80124303  1
  Ca  Ca2048  1  0.12500000  0.00000000  0.00000000  1
  Ca  Ca2049  1  0.12500000  0.00000000  0.25000000  1
  Ca  Ca2050  1  0.12500000  0.00000000  0.50000000  1
  Ca  Ca2051  1  0.12500000  0.00000000  0.75000000  1
  Ca  Ca2052  1  0.12500000  0.25000000  0.00000000  1
  Ca  Ca2053  1  0.12500000  0.25000000  0.25000000  1
  Ca  Ca2054  1  0.12500000  0.25000000  0.50000000  1
  Ca  Ca2055  1  0.12500000  0.25000000  0.75000000  1
  Ca  Ca2056  1  0.12500000  0.50000000  0.00000000  1
  Ca  Ca2057  1  0.12500000  0.50000000  0.25000000  1
  Ca  Ca2058  1  0.12500000  0.50000000  0.50000000  1
  Ca  Ca2059  1  0.12500000  0.50000000  0.75000000  1
  Ca  Ca2060  1  0.12500000  0.75000000  0.00000000  1
  Ca  Ca2061  1  0.12500000  0.75000000  0.25000000  1
  Ca  Ca2062  1  0.12500000  0.75000000  0.50000000  1
  Ca  Ca2063  1  0.12500000  0.75000000  0.75000000  1
  Ca  Ca2064  1  0.37500000  0.00000000  0.00000000  1
  Ca  Ca2065  1  0.37500000  0.00000000  0.25000000  1
  Ca  Ca2066  1  0.37500000  0.00000000  0.50000000  1
  Ca  Ca2067  1  0.37500000  0.00000000  0.75000000  1
  Ca  Ca2068  1  0.37500000  0.25000000  0.00000000  1
  Ca  Ca2069  1  0.37500000  0.25000000  0.25000000  1
  Ca  Ca2070  1  0.37500000  0.25000000  0.50000000  1
  Ca  Ca2071  1  0.37500000  0.25000000  0.75000000  1
  Ca  Ca2072  1  0.37500000  0.50000000  0.00000000  1
  Ca  Ca2073  1  0.37500000  0.50000000  0.25000000  1
  Ca  Ca2074  1  0.37500000  0.50000000  0.50000000  1
  Ca  Ca2075  1  0.37500000  0.50000000  0.75000000  1
  Ca  Ca2076  1  0.37500000  0.75000000  0.00000000  1
  Ca  Ca2077  1  0.37500000  0.75000000  0.25000000  1
  Ca  Ca2078  1  0.37500000  0.75000000  0.50000000  1
  Ca  Ca2079  1  0.37500000  0.75000000  0.75000000  1
  Ca  Ca2080  1  0.62500000  0.00000000  0.00000000  1
  Ca  Ca2081  1  0.62500000  0.00000000  0.25000000  1
  Ca  Ca2082  1  0.62500000  0.00000000  0.50000000  1
  Ca  Ca2083  1  0.62500000  0.00000000  0.75000000  1
  Ca  Ca2084  1  0.62500000  0.25000000  0.00000000  1
  Ca  Ca2085  1  0.62500000  0.25000000  0.25000000  1
  Ca  Ca2086  1  0.62500000  0.25000000  0.50000000  1
  Ca  Ca2087  1  0.62500000  0.25000000  0.75000000  1
  Ca  Ca2088  1  0.62500000  0.50000000  0.00000000  1
  Ca  Ca2089  1  0.62500000  0.50000000  0.25000000  1
  Ca  Ca2090  1  0.62500000  0.50000000  0.50000000  1
  Ca  Ca2091  1  0.62500000  0.50000000  0.75000000  1
  Ca  Ca2092  1  0.62500000  0.75000000  0.00000000  1
  Ca  Ca2093  1  0.62500000  0.75000000  0.25000000  1
  Ca  Ca2094  1  0.62500000  0.75000000  0.50000000  1
  Ca  Ca2095  1  0.62500000  0.75000000  0.75000000  1
  Ca  Ca2096  1  0.87500000  0.00000000  0.00000000  1
  Ca  Ca2097  1  0.87500000  0.00000000  0.25000000  1
  Ca  Ca2098  1  0.87500000  0.00000000  0.50000000  1
  Ca  Ca2099  1  0.87500000  0.00000000  0.75000000  1
  Ca  Ca2100  1  0.87500000  0.25000000  0.00000000  1
  Ca  Ca2101  1  0.87500000  0.25000000  0.25000000  1
  Ca  Ca2102  1  0.87500000  0.25000000  0.50000000  1
  Ca  Ca2103  1  0.87500000  0.25000000  0.75000000  1
  Ca  Ca2104  1  0.87500000  0.50000000  0.00000000  1
  Ca  Ca2105  1  0.87500000  0.50000000  0.25000000  1
  Ca  Ca2106  1  0.87500000  0.50000000  0.50000000  1
  Ca  Ca2107  1  0.87500000  0.50000000  0.75000000  1
  Ca  Ca2108  1  0.87500000  0.75000000  0.00000000  1
  Ca  Ca2109  1  0.87500000  0.75000000  0.25000000  1
  Ca  Ca2110  1  0.87500000  0.75000000  0.50000000  1
  Ca  Ca2111  1  0.87500000  0.75000000  0.75000000  1
  Ca  Ca2112  1  0.12500000  0.12500000  0.12500000  1
  Ca  Ca2113  1  0.12500000  0.12500000  0.37500000  1
  Ca  Ca2114  1  0.12500000  0.12500000  0.62500000  1
  Ca  Ca2115  1  0.12500000  0.12500000  0.87500000  1
  Ca  Ca2116  1  0.12500000  0.37500000  0.12500000  1
  Ca  Ca2117  1  0.12500000  0.37500000  0.37500000  1
  Ca  Ca2118  1  0.12500000  0.37500000  0.62500000  1
  Ca  Ca2119  1  0.12500000  0.37500000  0.87500000  1
  Ca  Ca2120  1  0.12500000  0.62500000  0.12500000  1
  Ca  Ca2121  1  0.12500000  0.62500000  0.37500000  1
  Ca  Ca2122  1  0.12500000  0.62500000  0.62500000  1
  Ca  Ca2123  1  0.12500000  0.62500000  0.87500000  1
  Ca  Ca2124  1  0.12500000  0.87500000  0.12500000  1
  Ca  Ca2125  1  0.12500000  0.87500000  0.37500000  1
  Ca  Ca2126  1  0.12500000  0.87500000  0.62500000  1
  Ca  Ca2127  1  0.12500000  0.87500000  0.87500000  1
  Ca  Ca2128  1  0.37500000  0.12500000  0.12500000  1
  Ca  Ca2129  1  0.37500000  0.12500000  0.37500000  1
  Ca  Ca2130  1  0.37500000  0.12500000  0.62500000  1
  Ca  Ca2131  1  0.37500000  0.12500000  0.87500000  1
  Ca  Ca2132  1  0.37500000  0.37500000  0.12500000  1
  Ca  Ca2133  1  0.37500000  0.37500000  0.37500000  1
  Ca  Ca2134  1  0.37500000  0.37500000  0.62500000  1
  Ca  Ca2135  1  0.37500000  0.37500000  0.87500000  1
  Ca  Ca2136  1  0.37500000  0.62500000  0.12500000  1
  Ca  Ca2137  1  0.37500000  0.62500000  0.37500000  1
  Ca  Ca2138  1  0.37500000  0.62500000  0.62500000  1
  Ca  Ca2139  1  0.37500000  0.62500000  0.87500000  1
  Ca  Ca2140  1  0.37500000  0.87500000  0.12500000  1
  Ca  Ca2141  1  0.37500000  0.87500000  0.37500000  1
  Ca  Ca2142  1  0.37500000  0.87500000  0.62500000  1
  Ca  Ca2143  1  0.37500000  0.87500000  0.87500000  1
  Ca  Ca2144  1  0.62500000  0.12500000  0.12500000  1
  Ca  Ca2145  1  0.62500000  0.12500000  0.37500000  1
  Ca  Ca2146  1  0.62500000  0.12500000  0.62500000  1
  Ca  Ca2147  1  0.62500000  0.12500000  0.87500000  1
  Ca  Ca2148  1  0.62500000  0.37500000  0.12500000  1
  Ca  Ca2149  1  0.62500000  0.37500000  0.37500000  1
  Ca  Ca2150  1  0.62500000  0.37500000  0.62500000  1
  Ca  Ca2151  1  0.62500000  0.37500000  0.87500000  1
  Ca  Ca2152  1  0.62500000  0.62500000  0.12500000  1
  Ca  Ca2153  1  0.62500000  0.62500000  0.37500000  1
  Ca  Ca2154  1  0.62500000  0.62500000  0.62500000  1
  Ca  Ca2155  1  0.62500000  0.62500000  0.87500000  1
  Ca  Ca2156  1  0.62500000  0.87500000  0.12500000  1
  Ca  Ca2157  1  0.62500000  0.87500000  0.37500000  1
  Ca  Ca2158  1  0.62500000  0.87500000  0.62500000  1
  Ca  Ca2159  1  0.62500000  0.87500000  0.87500000  1
  Ca  Ca2160  1  0.87500000  0.12500000  0.12500000  1
  Ca  Ca2161  1  0.87500000  0.12500000  0.37500000  1
  Ca  Ca2162  1  0.87500000  0.12500000  0.62500000  1
  Ca  Ca2163  1  0.87500000  0.12500000  0.87500000  1
  Ca  Ca2164  1  0.87500000  0.37500000  0.12500000  1
  Ca  Ca2165  1  0.87500000  0.37500000  0.37500000  1
  Ca  Ca2166  1  0.87500000  0.37500000  0.62500000  1
  Ca  Ca2167  1  0.87500000  0.37500000  0.87500000  1
  Ca  Ca2168  1  0.87500000  0.62500000  0.12500000  1
  Ca  Ca2169  1  0.87500000  0.62500000  0.37500000  1
  Ca  Ca2170  1  0.87500000  0.62500000  0.62500000  1
  Ca  Ca2171  1  0.87500000  0.62500000  0.87500000  1
  Ca  Ca2172  1  0.87500000  0.87500000  0.12500000  1
  Ca  Ca2173  1  0.87500000  0.87500000  0.37500000  1
  Ca  Ca2174  1  0.87500000  0.87500000  0.62500000  1
  Ca  Ca2175  1  0.87500000  0.87500000  0.87500000  1
  Ca  Ca2176  1  0.00000000  0.00000000  0.12500000  1
  Ca  Ca2177  1  0.00000000  0.00000000  0.37500000  1
  Ca  Ca2178  1  0.00000000  0.00000000  0.62500000  1
  Ca  Ca2179  1  0.00000000  0.00000000  0.87500000  1
  Ca  Ca2180  1  0.00000000  0.25000000  0.12500000  1
  Ca  Ca2181  1  0.00000000  0.25000000  0.37500000  1
  Ca  Ca2182  1  0.00000000  0.25000000  0.62500000  1
  Ca  Ca2183  1  0.00000000  0.25000000  0.87500000  1
  Ca  Ca2184  1  0.00000000  0.50000000  0.12500000  1
  Ca  Ca2185  1  0.00000000  0.50000000  0.37500000  1
  Ca  Ca2186  1  0.00000000  0.50000000  0.62500000  1
  Ca  Ca2187  1  0.00000000  0.50000000  0.87500000  1
  Ca  Ca2188  1  0.00000000  0.75000000  0.12500000  1
  Ca  Ca2189  1  0.00000000  0.75000000  0.37500000  1
  Ca  Ca2190  1  0.00000000  0.75000000  0.62500000  1
  Ca  Ca2191  1  0.00000000  0.75000000  0.87500000  1
  Ca  Ca2192  1  0.25000000  0.00000000  0.12500000  1
  Ca  Ca2193  1  0.25000000  0.00000000  0.37500000  1
  Ca  Ca2194  1  0.25000000  0.00000000  0.62500000  1
  Ca  Ca2195  1  0.25000000  0.00000000  0.87500000  1
  Ca  Ca2196  1  0.25000000  0.25000000  0.12500000  1
  Ca  Ca2197  1  0.25000000  0.25000000  0.37500000  1
  Ca  Ca2198  1  0.25000000  0.25000000  0.62500000  1
  Ca  Ca2199  1  0.25000000  0.25000000  0.87500000  1
  Ca  Ca2200  1  0.25000000  0.50000000  0.12500000  1
  Ca  Ca2201  1  0.25000000  0.50000000  0.37500000  1
  Ca  Ca2202  1  0.25000000  0.50000000  0.62500000  1
  Ca  Ca2203  1  0.25000000  0.50000000  0.87500000  1
  Ca  Ca2204  1  0.25000000  0.75000000  0.12500000  1
  Ca  Ca2205  1  0.25000000  0.75000000  0.37500000  1
  Ca  Ca2206  1  0.25000000  0.75000000  0.62500000  1
  Ca  Ca2207  1  0.25000000  0.75000000  0.87500000  1
  Ca  Ca2208  1  0.50000000  0.00000000  0.12500000  1
  Ca  Ca2209  1  0.50000000  0.00000000  0.37500000  1
  Ca  Ca2210  1  0.50000000  0.00000000  0.62500000  1
  Ca  Ca2211  1  0.50000000  0.00000000  0.87500000  1
  Ca  Ca2212  1  0.50000000  0.25000000  0.12500000  1
  Ca  Ca2213  1  0.50000000  0.25000000  0.37500000  1
  Ca  Ca2214  1  0.50000000  0.25000000  0.62500000  1
  Ca  Ca2215  1  0.50000000  0.25000000  0.87500000  1
  Ca  Ca2216  1  0.50000000  0.50000000  0.12500000  1
  Ca  Ca2217  1  0.50000000  0.50000000  0.37500000  1
  Ca  Ca2218  1  0.50000000  0.50000000  0.62500000  1
  Ca  Ca2219  1  0.50000000  0.50000000  0.87500000  1
  Ca  Ca2220  1  0.50000000  0.75000000  0.12500000  1
  Ca  Ca2221  1  0.50000000  0.75000000  0.37500000  1
  Ca  Ca2222  1  0.50000000  0.75000000  0.62500000  1
  Ca  Ca2223  1  0.50000000  0.75000000  0.87500000  1
  Ca  Ca2224  1  0.75000000  0.00000000  0.12500000  1
  Ca  Ca2225  1  0.75000000  0.00000000  0.37500000  1
  Ca  Ca2226  1  0.75000000  0.00000000  0.62500000  1
  Ca  Ca2227  1  0.75000000  0.00000000  0.87500000  1
  Ca  Ca2228  1  0.75000000  0.25000000  0.12500000  1
  Ca  Ca2229  1  0.75000000  0.25000000  0.37500000  1
  Ca  Ca2230  1  0.75000000  0.25000000  0.62500000  1
  Ca  Ca2231  1  0.75000000  0.25000000  0.87500000  1
  Ca  Ca2232  1  0.75000000  0.50000000  0.12500000  1
  Ca  Ca2233  1  0.75000000  0.50000000  0.37500000  1
  Ca  Ca2234  1  0.75000000  0.50000000  0.62500000  1
  Ca  Ca2235  1  0.75000000  0.50000000  0.87500000  1
  Ca  Ca2236  1  0.75000000  0.75000000  0.12500000  1
  Ca  Ca2237  1  0.75000000  0.75000000  0.37500000  1
  Ca  Ca2238  1  0.75000000  0.75000000  0.62500000  1
  Ca  Ca2239  1  0.75000000  0.75000000  0.87500000  1
  Ca  Ca2240  1  0.00000000  0.12500000  0.00000000  1
  Ca  Ca2241  1  0.00000000  0.12500000  0.25000000  1
  Ca  Ca2242  1  0.00000000  0.12500000  0.50000000  1
  Ca  Ca2243  1  0.00000000  0.12500000  0.75000000  1
  Ca  Ca2244  1  0.00000000  0.37500000  0.00000000  1
  Ca  Ca2245  1  0.00000000  0.37500000  0.25000000  1
  Ca  Ca2246  1  0.00000000  0.37500000  0.50000000  1
  Ca  Ca2247  1  0.00000000  0.37500000  0.75000000  1
  Ca  Ca2248  1  0.00000000  0.62500000  0.00000000  1
  Ca  Ca2249  1  0.00000000  0.62500000  0.25000000  1
  Ca  Ca2250  1  0.00000000  0.62500000  0.50000000  1
  Ca  Ca2251  1  0.00000000  0.62500000  0.75000000  1
  Ca  Ca2252  1  0.00000000  0.87500000  0.00000000  1
  Ca  Ca2253  1  0.00000000  0.87500000  0.25000000  1
  Ca  Ca2254  1  0.00000000  0.87500000  0.50000000  1
  Ca  Ca2255  1  0.00000000  0.87500000  0.75000000  1
  Ca  Ca2256  1  0.25000000  0.12500000  0.00000000  1
  Ca  Ca2257  1  0.25000000  0.12500000  0.25000000  1
  Ca  Ca2258  1  0.25000000  0.12500000  0.50000000  1
  Ca  Ca2259  1  0.25000000  0.12500000  0.75000000  1
  Ca  Ca2260  1  0.25000000  0.37500000  0.00000000  1
  Ca  Ca2261  1  0.25000000  0.37500000  0.25000000  1
  Ca  Ca2262  1  0.25000000  0.37500000  0.50000000  1
  Ca  Ca2263  1  0.25000000  0.37500000  0.75000000  1
  Ca  Ca2264  1  0.25000000  0.62500000  0.00000000  1
  Ca  Ca2265  1  0.25000000  0.62500000  0.25000000  1
  Ca  Ca2266  1  0.25000000  0.62500000  0.50000000  1
  Ca  Ca2267  1  0.25000000  0.62500000  0.75000000  1
  Ca  Ca2268  1  0.25000000  0.87500000  0.00000000  1
  Ca  Ca2269  1  0.25000000  0.87500000  0.25000000  1
  Ca  Ca2270  1  0.25000000  0.87500000  0.50000000  1
  Ca  Ca2271  1  0.25000000  0.87500000  0.75000000  1
  Ca  Ca2272  1  0.50000000  0.12500000  0.00000000  1
  Ca  Ca2273  1  0.50000000  0.12500000  0.25000000  1
  Ca  Ca2274  1  0.50000000  0.12500000  0.50000000  1
  Ca  Ca2275  1  0.50000000  0.12500000  0.75000000  1
  Ca  Ca2276  1  0.50000000  0.37500000  0.00000000  1
  Ca  Ca2277  1  0.50000000  0.37500000  0.25000000  1
  Ca  Ca2278  1  0.50000000  0.37500000  0.50000000  1
  Ca  Ca2279  1  0.50000000  0.37500000  0.75000000  1
  Ca  Ca2280  1  0.50000000  0.62500000  0.00000000  1
  Ca  Ca2281  1  0.50000000  0.62500000  0.25000000  1
  Ca  Ca2282  1  0.50000000  0.62500000  0.50000000  1
  Ca  Ca2283  1  0.50000000  0.62500000  0.75000000  1
  Ca  Ca2284  1  0.50000000  0.87500000  0.00000000  1
  Ca  Ca2285  1  0.50000000  0.87500000  0.25000000  1
  Ca  Ca2286  1  0.50000000  0.87500000  0.50000000  1
  Ca  Ca2287  1  0.50000000  0.87500000  0.75000000  1
  Ca  Ca2288  1  0.75000000  0.12500000  0.00000000  1
  Ca  Ca2289  1  0.75000000  0.12500000  0.25000000  1
  Ca  Ca2290  1  0.75000000  0.12500000  0.50000000  1
  Ca  Ca2291  1  0.75000000  0.12500000  0.75000000  1
  Ca  Ca2292  1  0.75000000  0.37500000  0.00000000  1
  Ca  Ca2293  1  0.75000000  0.37500000  0.25000000  1
  Ca  Ca2294  1  0.75000000  0.37500000  0.50000000  1
  Ca  Ca2295  1  0.75000000  0.37500000  0.75000000  1
  Ca  Ca2296  1  0.75000000  0.62500000  0.00000000  1
  Ca  Ca2297  1  0.75000000  0.62500000  0.25000000  1
  Ca  Ca2298  1  0.75000000  0.62500000  0.50000000  1
  Ca  Ca2299  1  0.75000000  0.62500000  0.75000000  1
  Ca  Ca2300  1  0.75000000  0.87500000  0.00000000  1
  Ca  Ca2301  1  0.75000000  0.87500000  0.25000000  1
  Ca  Ca2302  1  0.75000000  0.87500000  0.50000000  1
  Ca  Ca2303  1  0.75000000  0.87500000  0.75000000  1
  Si  Si2304  1  0.06209535  0.24615817  0.09311746  1
  Si  Si2305  1  0.06209535  0.24615817  0.34311746  1
  Si  Si2306  1  0.06209535  0.24615817  0.59311746  1
  Si  Si2307  1  0.06209535  0.24615817  0.84311746  1
  Si  Si2308  1  0.06209535  0.49615817  0.09311746  1
  Si  Si2309  1  0.06209535  0.49615817  0.34311746  1
  Si  Si2310  1  0.06209535  0.49615817  0.59311746  1
  Si  Si2311  1  0.06209535  0.49615817  0.84311746  1
  Si  Si2312  1  0.06209535  0.74615816  0.09311746  1
  Si  Si2313  1  0.06209535  0.74615816  0.34311746  1
  Si  Si2314  1  0.06209535  0.74615816  0.59311746  1
  Si  Si2315  1  0.06209535  0.74615816  0.84311746  1
  Si  Si2316  1  0.06209535  0.99615816  0.09311746  1
  Si  Si2317  1  0.06209535  0.99615816  0.34311746  1
  Si  Si2318  1  0.06209535  0.99615816  0.59311746  1
  Si  Si2319  1  0.06209535  0.99615816  0.84311746  1
  Si  Si2320  1  0.31209536  0.24615817  0.09311746  1
  Si  Si2321  1  0.31209536  0.24615817  0.34311746  1
  Si  Si2322  1  0.31209536  0.24615817  0.59311746  1
  Si  Si2323  1  0.31209536  0.24615817  0.84311746  1
  Si  Si2324  1  0.31209536  0.49615817  0.09311746  1
  Si  Si2325  1  0.31209536  0.49615817  0.34311746  1
  Si  Si2326  1  0.31209536  0.49615817  0.59311746  1
  Si  Si2327  1  0.31209536  0.49615817  0.84311746  1
  Si  Si2328  1  0.31209536  0.74615816  0.09311746  1
  Si  Si2329  1  0.31209536  0.74615816  0.34311746  1
  Si  Si2330  1  0.31209536  0.74615816  0.59311746  1
  Si  Si2331  1  0.31209536  0.74615816  0.84311746  1
  Si  Si2332  1  0.31209536  0.99615816  0.09311746  1
  Si  Si2333  1  0.31209536  0.99615816  0.34311746  1
  Si  Si2334  1  0.31209536  0.99615816  0.59311746  1
  Si  Si2335  1  0.31209536  0.99615816  0.84311746  1
  Si  Si2336  1  0.56209535  0.24615817  0.09311746  1
  Si  Si2337  1  0.56209535  0.24615817  0.34311746  1
  Si  Si2338  1  0.56209535  0.24615817  0.59311746  1
  Si  Si2339  1  0.56209535  0.24615817  0.84311746  1
  Si  Si2340  1  0.56209535  0.49615817  0.09311746  1
  Si  Si2341  1  0.56209535  0.49615817  0.34311746  1
  Si  Si2342  1  0.56209535  0.49615817  0.59311746  1
  Si  Si2343  1  0.56209535  0.49615817  0.84311746  1
  Si  Si2344  1  0.56209535  0.74615816  0.09311746  1
  Si  Si2345  1  0.56209535  0.74615816  0.34311746  1
  Si  Si2346  1  0.56209535  0.74615816  0.59311746  1
  Si  Si2347  1  0.56209535  0.74615816  0.84311746  1
  Si  Si2348  1  0.56209535  0.99615816  0.09311746  1
  Si  Si2349  1  0.56209535  0.99615816  0.34311746  1
  Si  Si2350  1  0.56209535  0.99615816  0.59311746  1
  Si  Si2351  1  0.56209535  0.99615816  0.84311746  1
  Si  Si2352  1  0.81209535  0.24615817  0.09311746  1
  Si  Si2353  1  0.81209535  0.24615817  0.34311746  1
  Si  Si2354  1  0.81209535  0.24615817  0.59311746  1
  Si  Si2355  1  0.81209535  0.24615817  0.84311746  1
  Si  Si2356  1  0.81209535  0.49615817  0.09311746  1
  Si  Si2357  1  0.81209535  0.49615817  0.34311746  1
  Si  Si2358  1  0.81209535  0.49615817  0.59311746  1
  Si  Si2359  1  0.81209535  0.49615817  0.84311746  1
  Si  Si2360  1  0.81209535  0.74615816  0.09311746  1
  Si  Si2361  1  0.81209535  0.74615816  0.34311746  1
  Si  Si2362  1  0.81209535  0.74615816  0.59311746  1
  Si  Si2363  1  0.81209535  0.74615816  0.84311746  1
  Si  Si2364  1  0.81209535  0.99615816  0.09311746  1
  Si  Si2365  1  0.81209535  0.99615816  0.34311746  1
  Si  Si2366  1  0.81209535  0.99615816  0.59311746  1
  Si  Si2367  1  0.81209535  0.99615816  0.84311746  1
  Si  Si2368  1  0.18790465  0.12115816  0.03188254  1
  Si  Si2369  1  0.18790465  0.12115816  0.28188254  1
  Si  Si2370  1  0.18790465  0.12115816  0.53188254  1
  Si  Si2371  1  0.18790465  0.12115816  0.78188254  1
  Si  Si2372  1  0.18790465  0.37115816  0.03188254  1
  Si  Si2373  1  0.18790465  0.37115816  0.28188254  1
  Si  Si2374  1  0.18790465  0.37115816  0.53188254  1
  Si  Si2375  1  0.18790465  0.37115816  0.78188254  1
  Si  Si2376  1  0.18790465  0.62115816  0.03188254  1
  Si  Si2377  1  0.18790465  0.62115816  0.28188254  1
  Si  Si2378  1  0.18790465  0.62115816  0.53188254  1
  Si  Si2379  1  0.18790465  0.62115816  0.78188254  1
  Si  Si2380  1  0.18790465  0.87115816  0.03188254  1
  Si  Si2381  1  0.18790465  0.87115816  0.28188254  1
  Si  Si2382  1  0.18790465  0.87115816  0.53188254  1
  Si  Si2383  1  0.18790465  0.87115816  0.78188254  1
  Si  Si2384  1  0.43790464  0.12115816  0.03188254  1
  Si  Si2385  1  0.43790464  0.12115816  0.28188254  1
  Si  Si2386  1  0.43790464  0.12115816  0.53188254  1
  Si  Si2387  1  0.43790464  0.12115816  0.78188254  1
  Si  Si2388  1  0.43790464  0.37115816  0.03188254  1
  Si  Si2389  1  0.43790464  0.37115816  0.28188254  1
  Si  Si2390  1  0.43790464  0.37115816  0.53188254  1
  Si  Si2391  1  0.43790464  0.37115816  0.78188254  1
  Si  Si2392  1  0.43790464  0.62115816  0.03188254  1
  Si  Si2393  1  0.43790464  0.62115816  0.28188254  1
  Si  Si2394  1  0.43790464  0.62115816  0.53188254  1
  Si  Si2395  1  0.43790464  0.62115816  0.78188254  1
  Si  Si2396  1  0.43790464  0.87115816  0.03188254  1
  Si  Si2397  1  0.43790464  0.87115816  0.28188254  1
  Si  Si2398  1  0.43790464  0.87115816  0.53188254  1
  Si  Si2399  1  0.43790464  0.87115816  0.78188254  1
  Si  Si2400  1  0.68790465  0.12115816  0.03188254  1
  Si  Si2401  1  0.68790465  0.12115816  0.28188254  1
  Si  Si2402  1  0.68790465  0.12115816  0.53188254  1
  Si  Si2403  1  0.68790465  0.12115816  0.78188254  1
  Si  Si2404  1  0.68790465  0.37115816  0.03188254  1
  Si  Si2405  1  0.68790465  0.37115816  0.28188254  1
  Si  Si2406  1  0.68790465  0.37115816  0.53188254  1
  Si  Si2407  1  0.68790465  0.37115816  0.78188254  1
  Si  Si2408  1  0.68790465  0.62115816  0.03188254  1
  Si  Si2409  1  0.68790465  0.62115816  0.28188254  1
  Si  Si2410  1  0.68790465  0.62115816  0.53188254  1
  Si  Si2411  1  0.68790465  0.62115816  0.78188254  1
  Si  Si2412  1  0.68790465  0.87115816  0.03188254  1
  Si  Si2413  1  0.68790465  0.87115816  0.28188254  1
  Si  Si2414  1  0.68790465  0.87115816  0.53188254  1
  Si  Si2415  1  0.68790465  0.87115816  0.78188254  1
  Si  Si2416  1  0.93790465  0.12115816  0.03188254  1
  Si  Si2417  1  0.93790465  0.12115816  0.28188254  1
  Si  Si2418  1  0.93790465  0.12115816  0.53188254  1
  Si  Si2419  1  0.93790465  0.12115816  0.78188254  1
  Si  Si2420  1  0.93790465  0.37115816  0.03188254  1
  Si  Si2421  1  0.93790465  0.37115816  0.28188254  1
  Si  Si2422  1  0.93790465  0.37115816  0.53188254  1
  Si  Si2423  1  0.93790465  0.37115816  0.78188254  1
  Si  Si2424  1  0.93790465  0.62115816  0.03188254  1
  Si  Si2425  1  0.93790465  0.62115816  0.28188254  1
  Si  Si2426  1  0.93790465  0.62115816  0.53188254  1
  Si  Si2427  1  0.93790465  0.62115816  0.78188254  1
  Si  Si2428  1  0.93790465  0.87115816  0.03188254  1
  Si  Si2429  1  0.93790465  0.87115816  0.28188254  1
  Si  Si2430  1  0.93790465  0.87115816  0.53188254  1
  Si  Si2431  1  0.93790465  0.87115816  0.78188254  1
  Si  Si2432  1  0.06290464  0.00384184  0.21811746  1
  Si  Si2433  1  0.06290464  0.00384184  0.46811746  1
  Si  Si2434  1  0.06290464  0.00384184  0.71811746  1
  Si  Si2435  1  0.06290464  0.00384184  0.96811746  1
  Si  Si2436  1  0.06290464  0.25384183  0.21811746  1
  Si  Si2437  1  0.06290464  0.25384183  0.46811746  1
  Si  Si2438  1  0.06290464  0.25384183  0.71811746  1
  Si  Si2439  1  0.06290464  0.25384183  0.96811746  1
  Si  Si2440  1  0.06290464  0.50384184  0.21811746  1
  Si  Si2441  1  0.06290464  0.50384184  0.46811746  1
  Si  Si2442  1  0.06290464  0.50384184  0.71811746  1
  Si  Si2443  1  0.06290464  0.50384184  0.96811746  1
  Si  Si2444  1  0.06290464  0.75384184  0.21811746  1
  Si  Si2445  1  0.06290464  0.75384184  0.46811746  1
  Si  Si2446  1  0.06290464  0.75384184  0.71811746  1
  Si  Si2447  1  0.06290464  0.75384184  0.96811746  1
  Si  Si2448  1  0.31290464  0.00384184  0.21811746  1
  Si  Si2449  1  0.31290464  0.00384184  0.46811746  1
  Si  Si2450  1  0.31290464  0.00384184  0.71811746  1
  Si  Si2451  1  0.31290464  0.00384184  0.96811746  1
  Si  Si2452  1  0.31290464  0.25384183  0.21811746  1
  Si  Si2453  1  0.31290464  0.25384183  0.46811746  1
  Si  Si2454  1  0.31290464  0.25384183  0.71811746  1
  Si  Si2455  1  0.31290464  0.25384183  0.96811746  1
  Si  Si2456  1  0.31290464  0.50384184  0.21811746  1
  Si  Si2457  1  0.31290464  0.50384184  0.46811746  1
  Si  Si2458  1  0.31290464  0.50384184  0.71811746  1
  Si  Si2459  1  0.31290464  0.50384184  0.96811746  1
  Si  Si2460  1  0.31290464  0.75384184  0.21811746  1
  Si  Si2461  1  0.31290464  0.75384184  0.46811746  1
  Si  Si2462  1  0.31290464  0.75384184  0.71811746  1
  Si  Si2463  1  0.31290464  0.75384184  0.96811746  1
  Si  Si2464  1  0.56290465  0.00384184  0.21811746  1
  Si  Si2465  1  0.56290465  0.00384184  0.46811746  1
  Si  Si2466  1  0.56290465  0.00384184  0.71811746  1
  Si  Si2467  1  0.56290465  0.00384184  0.96811746  1
  Si  Si2468  1  0.56290465  0.25384183  0.21811746  1
  Si  Si2469  1  0.56290465  0.25384183  0.46811746  1
  Si  Si2470  1  0.56290465  0.25384183  0.71811746  1
  Si  Si2471  1  0.56290465  0.25384183  0.96811746  1
  Si  Si2472  1  0.56290465  0.50384184  0.21811746  1
  Si  Si2473  1  0.56290465  0.50384184  0.46811746  1
  Si  Si2474  1  0.56290465  0.50384184  0.71811746  1
  Si  Si2475  1  0.56290465  0.50384184  0.96811746  1
  Si  Si2476  1  0.56290465  0.75384184  0.21811746  1
  Si  Si2477  1  0.56290465  0.75384184  0.46811746  1
  Si  Si2478  1  0.56290465  0.75384184  0.71811746  1
  Si  Si2479  1  0.56290465  0.75384184  0.96811746  1
  Si  Si2480  1  0.81290464  0.00384184  0.21811746  1
  Si  Si2481  1  0.81290464  0.00384184  0.46811746  1
  Si  Si2482  1  0.81290464  0.00384184  0.71811746  1
  Si  Si2483  1  0.81290464  0.00384184  0.96811746  1
  Si  Si2484  1  0.81290464  0.25384183  0.21811746  1
  Si  Si2485  1  0.81290464  0.25384183  0.46811746  1
  Si  Si2486  1  0.81290464  0.25384183  0.71811746  1
  Si  Si2487  1  0.81290464  0.25384183  0.96811746  1
  Si  Si2488  1  0.81290464  0.50384184  0.21811746  1
  Si  Si2489  1  0.81290464  0.50384184  0.46811746  1
  Si  Si2490  1  0.81290464  0.50384184  0.71811746  1
  Si  Si2491  1  0.81290464  0.50384184  0.96811746  1
  Si  Si2492  1  0.81290464  0.75384184  0.21811746  1
  Si  Si2493  1  0.81290464  0.75384184  0.46811746  1
  Si  Si2494  1  0.81290464  0.75384184  0.71811746  1
  Si  Si2495  1  0.81290464  0.75384184  0.96811746  1
  Si  Si2496  1  0.18709535  0.12884184  0.15688254  1
  Si  Si2497  1  0.18709535  0.12884184  0.40688254  1
  Si  Si2498  1  0.18709535  0.12884184  0.65688254  1
  Si  Si2499  1  0.18709535  0.12884184  0.90688254  1
  Si  Si2500  1  0.18709535  0.37884184  0.15688254  1
  Si  Si2501  1  0.18709535  0.37884184  0.40688254  1
  Si  Si2502  1  0.18709535  0.37884184  0.65688254  1
  Si  Si2503  1  0.18709535  0.37884184  0.90688254  1
  Si  Si2504  1  0.18709535  0.62884184  0.15688254  1
  Si  Si2505  1  0.18709535  0.62884184  0.40688254  1
  Si  Si2506  1  0.18709535  0.62884184  0.65688254  1
  Si  Si2507  1  0.18709535  0.62884184  0.90688254  1
  Si  Si2508  1  0.18709535  0.87884184  0.15688254  1
  Si  Si2509  1  0.18709535  0.87884184  0.40688254  1
  Si  Si2510  1  0.18709535  0.87884184  0.65688254  1
  Si  Si2511  1  0.18709535  0.87884184  0.90688254  1
  Si  Si2512  1  0.43709535  0.12884184  0.15688254  1
  Si  Si2513  1  0.43709535  0.12884184  0.40688254  1
  Si  Si2514  1  0.43709535  0.12884184  0.65688254  1
  Si  Si2515  1  0.43709535  0.12884184  0.90688254  1
  Si  Si2516  1  0.43709535  0.37884184  0.15688254  1
  Si  Si2517  1  0.43709535  0.37884184  0.40688254  1
  Si  Si2518  1  0.43709535  0.37884184  0.65688254  1
  Si  Si2519  1  0.43709535  0.37884184  0.90688254  1
  Si  Si2520  1  0.43709535  0.62884184  0.15688254  1
  Si  Si2521  1  0.43709535  0.62884184  0.40688254  1
  Si  Si2522  1  0.43709535  0.62884184  0.65688254  1
  Si  Si2523  1  0.43709535  0.62884184  0.90688254  1
  Si  Si2524  1  0.43709535  0.87884184  0.15688254  1
  Si  Si2525  1  0.43709535  0.87884184  0.40688254  1
  Si  Si2526  1  0.43709535  0.87884184  0.65688254  1
  Si  Si2527  1  0.43709535  0.87884184  0.90688254  1
  Si  Si2528  1  0.68709535  0.12884184  0.15688254  1
  Si  Si2529  1  0.68709535  0.12884184  0.40688254  1
  Si  Si2530  1  0.68709535  0.12884184  0.65688254  1
  Si  Si2531  1  0.68709535  0.12884184  0.90688254  1
  Si  Si2532  1  0.68709535  0.37884184  0.15688254  1
  Si  Si2533  1  0.68709535  0.37884184  0.40688254  1
  Si  Si2534  1  0.68709535  0.37884184  0.65688254  1
  Si  Si2535  1  0.68709535  0.37884184  0.90688254  1
  Si  Si2536  1  0.68709535  0.62884184  0.15688254  1
  Si  Si2537  1  0.68709535  0.62884184  0.40688254  1
  Si  Si2538  1  0.68709535  0.62884184  0.65688254  1
  Si  Si2539  1  0.68709535  0.62884184  0.90688254  1
  Si  Si2540  1  0.68709535  0.87884184  0.15688254  1
  Si  Si2541  1  0.68709535  0.87884184  0.40688254  1
  Si  Si2542  1  0.68709535  0.87884184  0.65688254  1
  Si  Si2543  1  0.68709535  0.87884184  0.90688254  1
  Si  Si2544  1  0.93709535  0.12884184  0.15688254  1
  Si  Si2545  1  0.93709535  0.12884184  0.40688254  1
  Si  Si2546  1  0.93709535  0.12884184  0.65688254  1
  Si  Si2547  1  0.93709535  0.12884184  0.90688254  1
  Si  Si2548  1  0.93709535  0.37884184  0.15688254  1
  Si  Si2549  1  0.93709535  0.37884184  0.40688254  1
  Si  Si2550  1  0.93709535  0.37884184  0.65688254  1
  Si  Si2551  1  0.93709535  0.37884184  0.90688254  1
  Si  Si2552  1  0.93709535  0.62884184  0.15688254  1
  Si  Si2553  1  0.93709535  0.62884184  0.40688254  1
  Si  Si2554  1  0.93709535  0.62884184  0.65688254  1
  Si  Si2555  1  0.93709535  0.62884184  0.90688254  1
  Si  Si2556  1  0.93709535  0.87884184  0.15688254  1
  Si  Si2557  1  0.93709535  0.87884184  0.40688254  1
  Si  Si2558  1  0.93709535  0.87884184  0.65688254  1
  Si  Si2559  1  0.93709535  0.87884184  0.90688254  1
  Si  Si2560  1  0.09311746  0.06209535  0.24615817  1
  Si  Si2561  1  0.09311746  0.06209535  0.49615817  1
  Si  Si2562  1  0.09311746  0.06209535  0.74615816  1
  Si  Si2563  1  0.09311746  0.06209535  0.99615816  1
  Si  Si2564  1  0.09311746  0.31209536  0.24615817  1
  Si  Si2565  1  0.09311746  0.31209536  0.49615817  1
  Si  Si2566  1  0.09311746  0.31209536  0.74615816  1
  Si  Si2567  1  0.09311746  0.31209536  0.99615816  1
  Si  Si2568  1  0.09311746  0.56209535  0.24615817  1
  Si  Si2569  1  0.09311746  0.56209535  0.49615817  1
  Si  Si2570  1  0.09311746  0.56209535  0.74615816  1
  Si  Si2571  1  0.09311746  0.56209535  0.99615816  1
  Si  Si2572  1  0.09311746  0.81209535  0.24615817  1
  Si  Si2573  1  0.09311746  0.81209535  0.49615817  1
  Si  Si2574  1  0.09311746  0.81209535  0.74615816  1
  Si  Si2575  1  0.09311746  0.81209535  0.99615816  1
  Si  Si2576  1  0.34311746  0.06209535  0.24615817  1
  Si  Si2577  1  0.34311746  0.06209535  0.49615817  1
  Si  Si2578  1  0.34311746  0.06209535  0.74615816  1
  Si  Si2579  1  0.34311746  0.06209535  0.99615816  1
  Si  Si2580  1  0.34311746  0.31209536  0.24615817  1
  Si  Si2581  1  0.34311746  0.31209536  0.49615817  1
  Si  Si2582  1  0.34311746  0.31209536  0.74615816  1
  Si  Si2583  1  0.34311746  0.31209536  0.99615816  1
  Si  Si2584  1  0.34311746  0.56209535  0.24615817  1
  Si  Si2585  1  0.34311746  0.56209535  0.49615817  1
  Si  Si2586  1  0.34311746  0.56209535  0.74615816  1
  Si  Si2587  1  0.34311746  0.56209535  0.99615816  1
  Si  Si2588  1  0.34311746  0.81209535  0.24615817  1
  Si  Si2589  1  0.34311746  0.81209535  0.49615817  1
  Si  Si2590  1  0.34311746  0.81209535  0.74615816  1
  Si  Si2591  1  0.34311746  0.81209535  0.99615816  1
  Si  Si2592  1  0.59311746  0.06209535  0.24615817  1
  Si  Si2593  1  0.59311746  0.06209535  0.49615817  1
  Si  Si2594  1  0.59311746  0.06209535  0.74615816  1
  Si  Si2595  1  0.59311746  0.06209535  0.99615816  1
  Si  Si2596  1  0.59311746  0.31209536  0.24615817  1
  Si  Si2597  1  0.59311746  0.31209536  0.49615817  1
  Si  Si2598  1  0.59311746  0.31209536  0.74615816  1
  Si  Si2599  1  0.59311746  0.31209536  0.99615816  1
  Si  Si2600  1  0.59311746  0.56209535  0.24615817  1
  Si  Si2601  1  0.59311746  0.56209535  0.49615817  1
  Si  Si2602  1  0.59311746  0.56209535  0.74615816  1
  Si  Si2603  1  0.59311746  0.56209535  0.99615816  1
  Si  Si2604  1  0.59311746  0.81209535  0.24615817  1
  Si  Si2605  1  0.59311746  0.81209535  0.49615817  1
  Si  Si2606  1  0.59311746  0.81209535  0.74615816  1
  Si  Si2607  1  0.59311746  0.81209535  0.99615816  1
  Si  Si2608  1  0.84311746  0.06209535  0.24615817  1
  Si  Si2609  1  0.84311746  0.06209535  0.49615817  1
  Si  Si2610  1  0.84311746  0.06209535  0.74615816  1
  Si  Si2611  1  0.84311746  0.06209535  0.99615816  1
  Si  Si2612  1  0.84311746  0.31209536  0.24615817  1
  Si  Si2613  1  0.84311746  0.31209536  0.49615817  1
  Si  Si2614  1  0.84311746  0.31209536  0.74615816  1
  Si  Si2615  1  0.84311746  0.31209536  0.99615816  1
  Si  Si2616  1  0.84311746  0.56209535  0.24615817  1
  Si  Si2617  1  0.84311746  0.56209535  0.49615817  1
  Si  Si2618  1  0.84311746  0.56209535  0.74615816  1
  Si  Si2619  1  0.84311746  0.56209535  0.99615816  1
  Si  Si2620  1  0.84311746  0.81209535  0.24615817  1
  Si  Si2621  1  0.84311746  0.81209535  0.49615817  1
  Si  Si2622  1  0.84311746  0.81209535  0.74615816  1
  Si  Si2623  1  0.84311746  0.81209535  0.99615816  1
  Si  Si2624  1  0.03188254  0.18790465  0.12115816  1
  Si  Si2625  1  0.03188254  0.18790465  0.37115816  1
  Si  Si2626  1  0.03188254  0.18790465  0.62115816  1
  Si  Si2627  1  0.03188254  0.18790465  0.87115816  1
  Si  Si2628  1  0.03188254  0.43790464  0.12115816  1
  Si  Si2629  1  0.03188254  0.43790464  0.37115816  1
  Si  Si2630  1  0.03188254  0.43790464  0.62115816  1
  Si  Si2631  1  0.03188254  0.43790464  0.87115816  1
  Si  Si2632  1  0.03188254  0.68790465  0.12115816  1
  Si  Si2633  1  0.03188254  0.68790465  0.37115816  1
  Si  Si2634  1  0.03188254  0.68790465  0.62115816  1
  Si  Si2635  1  0.03188254  0.68790465  0.87115816  1
  Si  Si2636  1  0.03188254  0.93790465  0.12115816  1
  Si  Si2637  1  0.03188254  0.93790465  0.37115816  1
  Si  Si2638  1  0.03188254  0.93790465  0.62115816  1
  Si  Si2639  1  0.03188254  0.93790465  0.87115816  1
  Si  Si2640  1  0.28188254  0.18790465  0.12115816  1
  Si  Si2641  1  0.28188254  0.18790465  0.37115816  1
  Si  Si2642  1  0.28188254  0.18790465  0.62115816  1
  Si  Si2643  1  0.28188254  0.18790465  0.87115816  1
  Si  Si2644  1  0.28188254  0.43790464  0.12115816  1
  Si  Si2645  1  0.28188254  0.43790464  0.37115816  1
  Si  Si2646  1  0.28188254  0.43790464  0.62115816  1
  Si  Si2647  1  0.28188254  0.43790464  0.87115816  1
  Si  Si2648  1  0.28188254  0.68790465  0.12115816  1
  Si  Si2649  1  0.28188254  0.68790465  0.37115816  1
  Si  Si2650  1  0.28188254  0.68790465  0.62115816  1
  Si  Si2651  1  0.28188254  0.68790465  0.87115816  1
  Si  Si2652  1  0.28188254  0.93790465  0.12115816  1
  Si  Si2653  1  0.28188254  0.93790465  0.37115816  1
  Si  Si2654  1  0.28188254  0.93790465  0.62115816  1
  Si  Si2655  1  0.28188254  0.93790465  0.87115816  1
  Si  Si2656  1  0.53188254  0.18790465  0.12115816  1
  Si  Si2657  1  0.53188254  0.18790465  0.37115816  1
  Si  Si2658  1  0.53188254  0.18790465  0.62115816  1
  Si  Si2659  1  0.53188254  0.18790465  0.87115816  1
  Si  Si2660  1  0.53188254  0.43790464  0.12115816  1
  Si  Si2661  1  0.53188254  0.43790464  0.37115816  1
  Si  Si2662  1  0.53188254  0.43790464  0.62115816  1
  Si  Si2663  1  0.53188254  0.43790464  0.87115816  1
  Si  Si2664  1  0.53188254  0.68790465  0.12115816  1
  Si  Si2665  1  0.53188254  0.68790465  0.37115816  1
  Si  Si2666  1  0.53188254  0.68790465  0.62115816  1
  Si  Si2667  1  0.53188254  0.68790465  0.87115816  1
  Si  Si2668  1  0.53188254  0.93790465  0.12115816  1
  Si  Si2669  1  0.53188254  0.93790465  0.37115816  1
  Si  Si2670  1  0.53188254  0.93790465  0.62115816  1
  Si  Si2671  1  0.53188254  0.93790465  0.87115816  1
  Si  Si2672  1  0.78188254  0.18790465  0.12115816  1
  Si  Si2673  1  0.78188254  0.18790465  0.37115816  1
  Si  Si2674  1  0.78188254  0.18790465  0.62115816  1
  Si  Si2675  1  0.78188254  0.18790465  0.87115816  1
  Si  Si2676  1  0.78188254  0.43790464  0.12115816  1
  Si  Si2677  1  0.78188254  0.43790464  0.37115816  1
  Si  Si2678  1  0.78188254  0.43790464  0.62115816  1
  Si  Si2679  1  0.78188254  0.43790464  0.87115816  1
  Si  Si2680  1  0.78188254  0.68790465  0.12115816  1
  Si  Si2681  1  0.78188254  0.68790465  0.37115816  1
  Si  Si2682  1  0.78188254  0.68790465  0.62115816  1
  Si  Si2683  1  0.78188254  0.68790465  0.87115816  1
  Si  Si2684  1  0.78188254  0.93790465  0.12115816  1
  Si  Si2685  1  0.78188254  0.93790465  0.37115816  1
  Si  Si2686  1  0.78188254  0.93790465  0.62115816  1
  Si  Si2687  1  0.78188254  0.93790465  0.87115816  1
  Si  Si2688  1  0.21811746  0.06290464  0.00384184  1
  Si  Si2689  1  0.21811746  0.06290464  0.25384183  1
  Si  Si2690  1  0.21811746  0.06290464  0.50384184  1
  Si  Si2691  1  0.21811746  0.06290464  0.75384184  1
  Si  Si2692  1  0.21811746  0.31290464  0.00384184  1
  Si  Si2693  1  0.21811746  0.31290464  0.25384183  1
  Si  Si2694  1  0.21811746  0.31290464  0.50384184  1
  Si  Si2695  1  0.21811746  0.31290464  0.75384184  1
  Si  Si2696  1  0.21811746  0.56290465  0.00384184  1
  Si  Si2697  1  0.21811746  0.56290465  0.25384183  1
  Si  Si2698  1  0.21811746  0.56290465  0.50384184  1
  Si  Si2699  1  0.21811746  0.56290465  0.75384184  1
  Si  Si2700  1  0.21811746  0.81290464  0.00384184  1
  Si  Si2701  1  0.21811746  0.81290464  0.25384183  1
  Si  Si2702  1  0.21811746  0.81290464  0.50384184  1
  Si  Si2703  1  0.21811746  0.81290464  0.75384184  1
  Si  Si2704  1  0.46811746  0.06290464  0.00384184  1
  Si  Si2705  1  0.46811746  0.06290464  0.25384183  1
  Si  Si2706  1  0.46811746  0.06290464  0.50384184  1
  Si  Si2707  1  0.46811746  0.06290464  0.75384184  1
  Si  Si2708  1  0.46811746  0.31290464  0.00384184  1
  Si  Si2709  1  0.46811746  0.31290464  0.25384183  1
  Si  Si2710  1  0.46811746  0.31290464  0.50384184  1
  Si  Si2711  1  0.46811746  0.31290464  0.75384184  1
  Si  Si2712  1  0.46811746  0.56290465  0.00384184  1
  Si  Si2713  1  0.46811746  0.56290465  0.25384183  1
  Si  Si2714  1  0.46811746  0.56290465  0.50384184  1
  Si  Si2715  1  0.46811746  0.56290465  0.75384184  1
  Si  Si2716  1  0.46811746  0.81290464  0.00384184  1
  Si  Si2717  1  0.46811746  0.81290464  0.25384183  1
  Si  Si2718  1  0.46811746  0.81290464  0.50384184  1
  Si  Si2719  1  0.46811746  0.81290464  0.75384184  1
  Si  Si2720  1  0.71811746  0.06290464  0.00384184  1
  Si  Si2721  1  0.71811746  0.06290464  0.25384183  1
  Si  Si2722  1  0.71811746  0.06290464  0.50384184  1
  Si  Si2723  1  0.71811746  0.06290464  0.75384184  1
  Si  Si2724  1  0.71811746  0.31290464  0.00384184  1
  Si  Si2725  1  0.71811746  0.31290464  0.25384183  1
  Si  Si2726  1  0.71811746  0.31290464  0.50384184  1
  Si  Si2727  1  0.71811746  0.31290464  0.75384184  1
  Si  Si2728  1  0.71811746  0.56290465  0.00384184  1
  Si  Si2729  1  0.71811746  0.56290465  0.25384183  1
  Si  Si2730  1  0.71811746  0.56290465  0.50384184  1
  Si  Si2731  1  0.71811746  0.56290465  0.75384184  1
  Si  Si2732  1  0.71811746  0.81290464  0.00384184  1
  Si  Si2733  1  0.71811746  0.81290464  0.25384183  1
  Si  Si2734  1  0.71811746  0.81290464  0.50384184  1
  Si  Si2735  1  0.71811746  0.81290464  0.75384184  1
  Si  Si2736  1  0.96811746  0.06290464  0.00384184  1
  Si  Si2737  1  0.96811746  0.06290464  0.25384183  1
  Si  Si2738  1  0.96811746  0.06290464  0.50384184  1
  Si  Si2739  1  0.96811746  0.06290464  0.75384184  1
  Si  Si2740  1  0.96811746  0.31290464  0.00384184  1
  Si  Si2741  1  0.96811746  0.31290464  0.25384183  1
  Si  Si2742  1  0.96811746  0.31290464  0.50384184  1
  Si  Si2743  1  0.96811746  0.31290464  0.75384184  1
  Si  Si2744  1  0.96811746  0.56290465  0.00384184  1
  Si  Si2745  1  0.96811746  0.56290465  0.25384183  1
  Si  Si2746  1  0.96811746  0.56290465  0.50384184  1
  Si  Si2747  1  0.96811746  0.56290465  0.75384184  1
  Si  Si2748  1  0.96811746  0.81290464  0.00384184  1
  Si  Si2749  1  0.96811746  0.81290464  0.25384183  1
  Si  Si2750  1  0.96811746  0.81290464  0.50384184  1
  Si  Si2751  1  0.96811746  0.81290464  0.75384184  1
  Si  Si2752  1  0.15688254  0.18709535  0.12884184  1
  Si  Si2753  1  0.15688254  0.18709535  0.37884184  1
  Si  Si2754  1  0.15688254  0.18709535  0.62884184  1
  Si  Si2755  1  0.15688254  0.18709535  0.87884184  1
  Si  Si2756  1  0.15688254  0.43709535  0.12884184  1
  Si  Si2757  1  0.15688254  0.43709535  0.37884184  1
  Si  Si2758  1  0.15688254  0.43709535  0.62884184  1
  Si  Si2759  1  0.15688254  0.43709535  0.87884184  1
  Si  Si2760  1  0.15688254  0.68709535  0.12884184  1
  Si  Si2761  1  0.15688254  0.68709535  0.37884184  1
  Si  Si2762  1  0.15688254  0.68709535  0.62884184  1
  Si  Si2763  1  0.15688254  0.68709535  0.87884184  1
  Si  Si2764  1  0.15688254  0.93709535  0.12884184  1
  Si  Si2765  1  0.15688254  0.93709535  0.37884184  1
  Si  Si2766  1  0.15688254  0.93709535  0.62884184  1
  Si  Si2767  1  0.15688254  0.93709535  0.87884184  1
  Si  Si2768  1  0.40688254  0.18709535  0.12884184  1
  Si  Si2769  1  0.40688254  0.18709535  0.37884184  1
  Si  Si2770  1  0.40688254  0.18709535  0.62884184  1
  Si  Si2771  1  0.40688254  0.18709535  0.87884184  1
  Si  Si2772  1  0.40688254  0.43709535  0.12884184  1
  Si  Si2773  1  0.40688254  0.43709535  0.37884184  1
  Si  Si2774  1  0.40688254  0.43709535  0.62884184  1
  Si  Si2775  1  0.40688254  0.43709535  0.87884184  1
  Si  Si2776  1  0.40688254  0.68709535  0.12884184  1
  Si  Si2777  1  0.40688254  0.68709535  0.37884184  1
  Si  Si2778  1  0.40688254  0.68709535  0.62884184  1
  Si  Si2779  1  0.40688254  0.68709535  0.87884184  1
  Si  Si2780  1  0.40688254  0.93709535  0.12884184  1
  Si  Si2781  1  0.40688254  0.93709535  0.37884184  1
  Si  Si2782  1  0.40688254  0.93709535  0.62884184  1
  Si  Si2783  1  0.40688254  0.93709535  0.87884184  1
  Si  Si2784  1  0.65688254  0.18709535  0.12884184  1
  Si  Si2785  1  0.65688254  0.18709535  0.37884184  1
  Si  Si2786  1  0.65688254  0.18709535  0.62884184  1
  Si  Si2787  1  0.65688254  0.18709535  0.87884184  1
  Si  Si2788  1  0.65688254  0.43709535  0.12884184  1
  Si  Si2789  1  0.65688254  0.43709535  0.37884184  1
  Si  Si2790  1  0.65688254  0.43709535  0.62884184  1
  Si  Si2791  1  0.65688254  0.43709535  0.87884184  1
  Si  Si2792  1  0.65688254  0.68709535  0.12884184  1
  Si  Si2793  1  0.65688254  0.68709535  0.37884184  1
  Si  Si2794  1  0.65688254  0.68709535  0.62884184  1
  Si  Si2795  1  0.65688254  0.68709535  0.87884184  1
  Si  Si2796  1  0.65688254  0.93709535  0.12884184  1
  Si  Si2797  1  0.65688254  0.93709535  0.37884184  1
  Si  Si2798  1  0.65688254  0.93709535  0.62884184  1
  Si  Si2799  1  0.65688254  0.93709535  0.87884184  1
  Si  Si2800  1  0.90688254  0.18709535  0.12884184  1
  Si  Si2801  1  0.90688254  0.18709535  0.37884184  1
  Si  Si2802  1  0.90688254  0.18709535  0.62884184  1
  Si  Si2803  1  0.90688254  0.18709535  0.87884184  1
  Si  Si2804  1  0.90688254  0.43709535  0.12884184  1
  Si  Si2805  1  0.90688254  0.43709535  0.37884184  1
  Si  Si2806  1  0.90688254  0.43709535  0.62884184  1
  Si  Si2807  1  0.90688254  0.43709535  0.87884184  1
  Si  Si2808  1  0.90688254  0.68709535  0.12884184  1
  Si  Si2809  1  0.90688254  0.68709535  0.37884184  1
  Si  Si2810  1  0.90688254  0.68709535  0.62884184  1
  Si  Si2811  1  0.90688254  0.68709535  0.87884184  1
  Si  Si2812  1  0.90688254  0.93709535  0.12884184  1
  Si  Si2813  1  0.90688254  0.93709535  0.37884184  1
  Si  Si2814  1  0.90688254  0.93709535  0.62884184  1
  Si  Si2815  1  0.90688254  0.93709535  0.87884184  1
  Si  Si2816  1  0.24615817  0.09311746  0.06209535  1
  Si  Si2817  1  0.24615817  0.09311746  0.31209536  1
  Si  Si2818  1  0.24615817  0.09311746  0.56209535  1
  Si  Si2819  1  0.24615817  0.09311746  0.81209535  1
  Si  Si2820  1  0.24615817  0.34311746  0.06209535  1
  Si  Si2821  1  0.24615817  0.34311746  0.31209536  1
  Si  Si2822  1  0.24615817  0.34311746  0.56209535  1
  Si  Si2823  1  0.24615817  0.34311746  0.81209535  1
  Si  Si2824  1  0.24615817  0.59311746  0.06209535  1
  Si  Si2825  1  0.24615817  0.59311746  0.31209536  1
  Si  Si2826  1  0.24615817  0.59311746  0.56209535  1
  Si  Si2827  1  0.24615817  0.59311746  0.81209535  1
  Si  Si2828  1  0.24615817  0.84311746  0.06209535  1
  Si  Si2829  1  0.24615817  0.84311746  0.31209536  1
  Si  Si2830  1  0.24615817  0.84311746  0.56209535  1
  Si  Si2831  1  0.24615817  0.84311746  0.81209535  1
  Si  Si2832  1  0.49615817  0.09311746  0.06209535  1
  Si  Si2833  1  0.49615817  0.09311746  0.31209536  1
  Si  Si2834  1  0.49615817  0.09311746  0.56209535  1
  Si  Si2835  1  0.49615817  0.09311746  0.81209535  1
  Si  Si2836  1  0.49615817  0.34311746  0.06209535  1
  Si  Si2837  1  0.49615817  0.34311746  0.31209536  1
  Si  Si2838  1  0.49615817  0.34311746  0.56209535  1
  Si  Si2839  1  0.49615817  0.34311746  0.81209535  1
  Si  Si2840  1  0.49615817  0.59311746  0.06209535  1
  Si  Si2841  1  0.49615817  0.59311746  0.31209536  1
  Si  Si2842  1  0.49615817  0.59311746  0.56209535  1
  Si  Si2843  1  0.49615817  0.59311746  0.81209535  1
  Si  Si2844  1  0.49615817  0.84311746  0.06209535  1
  Si  Si2845  1  0.49615817  0.84311746  0.31209536  1
  Si  Si2846  1  0.49615817  0.84311746  0.56209535  1
  Si  Si2847  1  0.49615817  0.84311746  0.81209535  1
  Si  Si2848  1  0.74615816  0.09311746  0.06209535  1
  Si  Si2849  1  0.74615816  0.09311746  0.31209536  1
  Si  Si2850  1  0.74615816  0.09311746  0.56209535  1
  Si  Si2851  1  0.74615816  0.09311746  0.81209535  1
  Si  Si2852  1  0.74615816  0.34311746  0.06209535  1
  Si  Si2853  1  0.74615816  0.34311746  0.31209536  1
  Si  Si2854  1  0.74615816  0.34311746  0.56209535  1
  Si  Si2855  1  0.74615816  0.34311746  0.81209535  1
  Si  Si2856  1  0.74615816  0.59311746  0.06209535  1
  Si  Si2857  1  0.74615816  0.59311746  0.31209536  1
  Si  Si2858  1  0.74615816  0.59311746  0.56209535  1
  Si  Si2859  1  0.74615816  0.59311746  0.81209535  1
  Si  Si2860  1  0.74615816  0.84311746  0.06209535  1
  Si  Si2861  1  0.74615816  0.84311746  0.31209536  1
  Si  Si2862  1  0.74615816  0.84311746  0.56209535  1
  Si  Si2863  1  0.74615816  0.84311746  0.81209535  1
  Si  Si2864  1  0.99615816  0.09311746  0.06209535  1
  Si  Si2865  1  0.99615816  0.09311746  0.31209536  1
  Si  Si2866  1  0.99615816  0.09311746  0.56209535  1
  Si  Si2867  1  0.99615816  0.09311746  0.81209535  1
  Si  Si2868  1  0.99615816  0.34311746  0.06209535  1
  Si  Si2869  1  0.99615816  0.34311746  0.31209536  1
  Si  Si2870  1  0.99615816  0.34311746  0.56209535  1
  Si  Si2871  1  0.99615816  0.34311746  0.81209535  1
  Si  Si2872  1  0.99615816  0.59311746  0.06209535  1
  Si  Si2873  1  0.99615816  0.59311746  0.31209536  1
  Si  Si2874  1  0.99615816  0.59311746  0.56209535  1
  Si  Si2875  1  0.99615816  0.59311746  0.81209535  1
  Si  Si2876  1  0.99615816  0.84311746  0.06209535  1
  Si  Si2877  1  0.99615816  0.84311746  0.31209536  1
  Si  Si2878  1  0.99615816  0.84311746  0.56209535  1
  Si  Si2879  1  0.99615816  0.84311746  0.81209535  1
  Si  Si2880  1  0.12115816  0.03188254  0.18790465  1
  Si  Si2881  1  0.12115816  0.03188254  0.43790464  1
  Si  Si2882  1  0.12115816  0.03188254  0.68790465  1
  Si  Si2883  1  0.12115816  0.03188254  0.93790465  1
  Si  Si2884  1  0.12115816  0.28188254  0.18790465  1
  Si  Si2885  1  0.12115816  0.28188254  0.43790464  1
  Si  Si2886  1  0.12115816  0.28188254  0.68790465  1
  Si  Si2887  1  0.12115816  0.28188254  0.93790465  1
  Si  Si2888  1  0.12115816  0.53188254  0.18790465  1
  Si  Si2889  1  0.12115816  0.53188254  0.43790464  1
  Si  Si2890  1  0.12115816  0.53188254  0.68790465  1
  Si  Si2891  1  0.12115816  0.53188254  0.93790465  1
  Si  Si2892  1  0.12115816  0.78188254  0.18790465  1
  Si  Si2893  1  0.12115816  0.78188254  0.43790464  1
  Si  Si2894  1  0.12115816  0.78188254  0.68790465  1
  Si  Si2895  1  0.12115816  0.78188254  0.93790465  1
  Si  Si2896  1  0.37115816  0.03188254  0.18790465  1
  Si  Si2897  1  0.37115816  0.03188254  0.43790464  1
  Si  Si2898  1  0.37115816  0.03188254  0.68790465  1
  Si  Si2899  1  0.37115816  0.03188254  0.93790465  1
  Si  Si2900  1  0.37115816  0.28188254  0.18790465  1
  Si  Si2901  1  0.37115816  0.28188254  0.43790464  1
  Si  Si2902  1  0.37115816  0.28188254  0.68790465  1
  Si  Si2903  1  0.37115816  0.28188254  0.93790465  1
  Si  Si2904  1  0.37115816  0.53188254  0.18790465  1
  Si  Si2905  1  0.37115816  0.53188254  0.43790464  1
  Si  Si2906  1  0.37115816  0.53188254  0.68790465  1
  Si  Si2907  1  0.37115816  0.53188254  0.93790465  1
  Si  Si2908  1  0.37115816  0.78188254  0.18790465  1
  Si  Si2909  1  0.37115816  0.78188254  0.43790464  1
  Si  Si2910  1  0.37115816  0.78188254  0.68790465  1
  Si  Si2911  1  0.37115816  0.78188254  0.93790465  1
  Si  Si2912  1  0.62115816  0.03188254  0.18790465  1
  Si  Si2913  1  0.62115816  0.03188254  0.43790464  1
  Si  Si2914  1  0.62115816  0.03188254  0.68790465  1
  Si  Si2915  1  0.62115816  0.03188254  0.93790465  1
  Si  Si2916  1  0.62115816  0.28188254  0.18790465  1
  Si  Si2917  1  0.62115816  0.28188254  0.43790464  1
  Si  Si2918  1  0.62115816  0.28188254  0.68790465  1
  Si  Si2919  1  0.62115816  0.28188254  0.93790465  1
  Si  Si2920  1  0.62115816  0.53188254  0.18790465  1
  Si  Si2921  1  0.62115816  0.53188254  0.43790464  1
  Si  Si2922  1  0.62115816  0.53188254  0.68790465  1
  Si  Si2923  1  0.62115816  0.53188254  0.93790465  1
  Si  Si2924  1  0.62115816  0.78188254  0.18790465  1
  Si  Si2925  1  0.62115816  0.78188254  0.43790464  1
  Si  Si2926  1  0.62115816  0.78188254  0.68790465  1
  Si  Si2927  1  0.62115816  0.78188254  0.93790465  1
  Si  Si2928  1  0.87115816  0.03188254  0.18790465  1
  Si  Si2929  1  0.87115816  0.03188254  0.43790464  1
  Si  Si2930  1  0.87115816  0.03188254  0.68790465  1
  Si  Si2931  1  0.87115816  0.03188254  0.93790465  1
  Si  Si2932  1  0.87115816  0.28188254  0.18790465  1
  Si  Si2933  1  0.87115816  0.28188254  0.43790464  1
  Si  Si2934  1  0.87115816  0.28188254  0.68790465  1
  Si  Si2935  1  0.87115816  0.28188254  0.93790465  1
  Si  Si2936  1  0.87115816  0.53188254  0.18790465  1
  Si  Si2937  1  0.87115816  0.53188254  0.43790464  1
  Si  Si2938  1  0.87115816  0.53188254  0.68790465  1
  Si  Si2939  1  0.87115816  0.53188254  0.93790465  1
  Si  Si2940  1  0.87115816  0.78188254  0.18790465  1
  Si  Si2941  1  0.87115816  0.78188254  0.43790464  1
  Si  Si2942  1  0.87115816  0.78188254  0.68790465  1
  Si  Si2943  1  0.87115816  0.78188254  0.93790465  1
  Si  Si2944  1  0.00384184  0.21811746  0.06290464  1
  Si  Si2945  1  0.00384184  0.21811746  0.31290464  1
  Si  Si2946  1  0.00384184  0.21811746  0.56290465  1
  Si  Si2947  1  0.00384184  0.21811746  0.81290464  1
  Si  Si2948  1  0.00384184  0.46811746  0.06290464  1
  Si  Si2949  1  0.00384184  0.46811746  0.31290464  1
  Si  Si2950  1  0.00384184  0.46811746  0.56290465  1
  Si  Si2951  1  0.00384184  0.46811746  0.81290464  1
  Si  Si2952  1  0.00384184  0.71811746  0.06290464  1
  Si  Si2953  1  0.00384184  0.71811746  0.31290464  1
  Si  Si2954  1  0.00384184  0.71811746  0.56290465  1
  Si  Si2955  1  0.00384184  0.71811746  0.81290464  1
  Si  Si2956  1  0.00384184  0.96811746  0.06290464  1
  Si  Si2957  1  0.00384184  0.96811746  0.31290464  1
  Si  Si2958  1  0.00384184  0.96811746  0.56290465  1
  Si  Si2959  1  0.00384184  0.96811746  0.81290464  1
  Si  Si2960  1  0.25384183  0.21811746  0.06290464  1
  Si  Si2961  1  0.25384183  0.21811746  0.31290464  1
  Si  Si2962  1  0.25384183  0.21811746  0.56290465  1
  Si  Si2963  1  0.25384183  0.21811746  0.81290464  1
  Si  Si2964  1  0.25384183  0.46811746  0.06290464  1
  Si  Si2965  1  0.25384183  0.46811746  0.31290464  1
  Si  Si2966  1  0.25384183  0.46811746  0.56290465  1
  Si  Si2967  1  0.25384183  0.46811746  0.81290464  1
  Si  Si2968  1  0.25384183  0.71811746  0.06290464  1
  Si  Si2969  1  0.25384183  0.71811746  0.31290464  1
  Si  Si2970  1  0.25384183  0.71811746  0.56290465  1
  Si  Si2971  1  0.25384183  0.71811746  0.81290464  1
  Si  Si2972  1  0.25384183  0.96811746  0.06290464  1
  Si  Si2973  1  0.25384183  0.96811746  0.31290464  1
  Si  Si2974  1  0.25384183  0.96811746  0.56290465  1
  Si  Si2975  1  0.25384183  0.96811746  0.81290464  1
  Si  Si2976  1  0.50384184  0.21811746  0.06290464  1
  Si  Si2977  1  0.50384184  0.21811746  0.31290464  1
  Si  Si2978  1  0.50384184  0.21811746  0.56290465  1
  Si  Si2979  1  0.50384184  0.21811746  0.81290464  1
  Si  Si2980  1  0.50384184  0.46811746  0.06290464  1
  Si  Si2981  1  0.50384184  0.46811746  0.31290464  1
  Si  Si2982  1  0.50384184  0.46811746  0.56290465  1
  Si  Si2983  1  0.50384184  0.46811746  0.81290464  1
  Si  Si2984  1  0.50384184  0.71811746  0.06290464  1
  Si  Si2985  1  0.50384184  0.71811746  0.31290464  1
  Si  Si2986  1  0.50384184  0.71811746  0.56290465  1
  Si  Si2987  1  0.50384184  0.71811746  0.81290464  1
  Si  Si2988  1  0.50384184  0.96811746  0.06290464  1
  Si  Si2989  1  0.50384184  0.96811746  0.31290464  1
  Si  Si2990  1  0.50384184  0.96811746  0.56290465  1
  Si  Si2991  1  0.50384184  0.96811746  0.81290464  1
  Si  Si2992  1  0.75384184  0.21811746  0.06290464  1
  Si  Si2993  1  0.75384184  0.21811746  0.31290464  1
  Si  Si2994  1  0.75384184  0.21811746  0.56290465  1
  Si  Si2995  1  0.75384184  0.21811746  0.81290464  1
  Si  Si2996  1  0.75384184  0.46811746  0.06290464  1
  Si  Si2997  1  0.75384184  0.46811746  0.31290464  1
  Si  Si2998  1  0.75384184  0.46811746  0.56290465  1
  Si  Si2999  1  0.75384184  0.46811746  0.81290464  1
  Si  Si3000  1  0.75384184  0.71811746  0.06290464  1
  Si  Si3001  1  0.75384184  0.71811746  0.31290464  1
  Si  Si3002  1  0.75384184  0.71811746  0.56290465  1
  Si  Si3003  1  0.75384184  0.71811746  0.81290464  1
  Si  Si3004  1  0.75384184  0.96811746  0.06290464  1
  Si  Si3005  1  0.75384184  0.96811746  0.31290464  1
  Si  Si3006  1  0.75384184  0.96811746  0.56290465  1
  Si  Si3007  1  0.75384184  0.96811746  0.81290464  1
  Si  Si3008  1  0.12884184  0.15688254  0.18709535  1
  Si  Si3009  1  0.12884184  0.15688254  0.43709535  1
  Si  Si3010  1  0.12884184  0.15688254  0.68709535  1
  Si  Si3011  1  0.12884184  0.15688254  0.93709535  1
  Si  Si3012  1  0.12884184  0.40688254  0.18709535  1
  Si  Si3013  1  0.12884184  0.40688254  0.43709535  1
  Si  Si3014  1  0.12884184  0.40688254  0.68709535  1
  Si  Si3015  1  0.12884184  0.40688254  0.93709535  1
  Si  Si3016  1  0.12884184  0.65688254  0.18709535  1
  Si  Si3017  1  0.12884184  0.65688254  0.43709535  1
  Si  Si3018  1  0.12884184  0.65688254  0.68709535  1
  Si  Si3019  1  0.12884184  0.65688254  0.93709535  1
  Si  Si3020  1  0.12884184  0.90688254  0.18709535  1
  Si  Si3021  1  0.12884184  0.90688254  0.43709535  1
  Si  Si3022  1  0.12884184  0.90688254  0.68709535  1
  Si  Si3023  1  0.12884184  0.90688254  0.93709535  1
  Si  Si3024  1  0.37884184  0.15688254  0.18709535  1
  Si  Si3025  1  0.37884184  0.15688254  0.43709535  1
  Si  Si3026  1  0.37884184  0.15688254  0.68709535  1
  Si  Si3027  1  0.37884184  0.15688254  0.93709535  1
  Si  Si3028  1  0.37884184  0.40688254  0.18709535  1
  Si  Si3029  1  0.37884184  0.40688254  0.43709535  1
  Si  Si3030  1  0.37884184  0.40688254  0.68709535  1
  Si  Si3031  1  0.37884184  0.40688254  0.93709535  1
  Si  Si3032  1  0.37884184  0.65688254  0.18709535  1
  Si  Si3033  1  0.37884184  0.65688254  0.43709535  1
  Si  Si3034  1  0.37884184  0.65688254  0.68709535  1
  Si  Si3035  1  0.37884184  0.65688254  0.93709535  1
  Si  Si3036  1  0.37884184  0.90688254  0.18709535  1
  Si  Si3037  1  0.37884184  0.90688254  0.43709535  1
  Si  Si3038  1  0.37884184  0.90688254  0.68709535  1
  Si  Si3039  1  0.37884184  0.90688254  0.93709535  1
  Si  Si3040  1  0.62884184  0.15688254  0.18709535  1
  Si  Si3041  1  0.62884184  0.15688254  0.43709535  1
  Si  Si3042  1  0.62884184  0.15688254  0.68709535  1
  Si  Si3043  1  0.62884184  0.15688254  0.93709535  1
  Si  Si3044  1  0.62884184  0.40688254  0.18709535  1
  Si  Si3045  1  0.62884184  0.40688254  0.43709535  1
  Si  Si3046  1  0.62884184  0.40688254  0.68709535  1
  Si  Si3047  1  0.62884184  0.40688254  0.93709535  1
  Si  Si3048  1  0.62884184  0.65688254  0.18709535  1
  Si  Si3049  1  0.62884184  0.65688254  0.43709535  1
  Si  Si3050  1  0.62884184  0.65688254  0.68709535  1
  Si  Si3051  1  0.62884184  0.65688254  0.93709535  1
  Si  Si3052  1  0.62884184  0.90688254  0.18709535  1
  Si  Si3053  1  0.62884184  0.90688254  0.43709535  1
  Si  Si3054  1  0.62884184  0.90688254  0.68709535  1
  Si  Si3055  1  0.62884184  0.90688254  0.93709535  1
  Si  Si3056  1  0.87884184  0.15688254  0.18709535  1
  Si  Si3057  1  0.87884184  0.15688254  0.43709535  1
  Si  Si3058  1  0.87884184  0.15688254  0.68709535  1
  Si  Si3059  1  0.87884184  0.15688254  0.93709535  1
  Si  Si3060  1  0.87884184  0.40688254  0.18709535  1
  Si  Si3061  1  0.87884184  0.40688254  0.43709535  1
  Si  Si3062  1  0.87884184  0.40688254  0.68709535  1
  Si  Si3063  1  0.87884184  0.40688254  0.93709535  1
  Si  Si3064  1  0.87884184  0.65688254  0.18709535  1
  Si  Si3065  1  0.87884184  0.65688254  0.43709535  1
  Si  Si3066  1  0.87884184  0.65688254  0.68709535  1
  Si  Si3067  1  0.87884184  0.65688254  0.93709535  1
  Si  Si3068  1  0.87884184  0.90688254  0.18709535  1
  Si  Si3069  1  0.87884184  0.90688254  0.43709535  1
  Si  Si3070  1  0.87884184  0.90688254  0.68709535  1
  Si  Si3071  1  0.87884184  0.90688254  0.93709535  1
  Si  Si3072  1  0.18790465  0.00384184  0.15688254  1
  Si  Si3073  1  0.18790465  0.00384184  0.40688254  1
  Si  Si3074  1  0.18790465  0.00384184  0.65688254  1
  Si  Si3075  1  0.18790465  0.00384184  0.90688254  1
  Si  Si3076  1  0.18790465  0.25384183  0.15688254  1
  Si  Si3077  1  0.18790465  0.25384183  0.40688254  1
  Si  Si3078  1  0.18790465  0.25384183  0.65688254  1
  Si  Si3079  1  0.18790465  0.25384183  0.90688254  1
  Si  Si3080  1  0.18790465  0.50384184  0.15688254  1
  Si  Si3081  1  0.18790465  0.50384184  0.40688254  1
  Si  Si3082  1  0.18790465  0.50384184  0.65688254  1
  Si  Si3083  1  0.18790465  0.50384184  0.90688254  1
  Si  Si3084  1  0.18790465  0.75384184  0.15688254  1
  Si  Si3085  1  0.18790465  0.75384184  0.40688254  1
  Si  Si3086  1  0.18790465  0.75384184  0.65688254  1
  Si  Si3087  1  0.18790465  0.75384184  0.90688254  1
  Si  Si3088  1  0.43790464  0.00384184  0.15688254  1
  Si  Si3089  1  0.43790464  0.00384184  0.40688254  1
  Si  Si3090  1  0.43790464  0.00384184  0.65688254  1
  Si  Si3091  1  0.43790464  0.00384184  0.90688254  1
  Si  Si3092  1  0.43790464  0.25384183  0.15688254  1
  Si  Si3093  1  0.43790464  0.25384183  0.40688254  1
  Si  Si3094  1  0.43790464  0.25384183  0.65688254  1
  Si  Si3095  1  0.43790464  0.25384183  0.90688254  1
  Si  Si3096  1  0.43790464  0.50384184  0.15688254  1
  Si  Si3097  1  0.43790464  0.50384184  0.40688254  1
  Si  Si3098  1  0.43790464  0.50384184  0.65688254  1
  Si  Si3099  1  0.43790464  0.50384184  0.90688254  1
  Si  Si3100  1  0.43790464  0.75384184  0.15688254  1
  Si  Si3101  1  0.43790464  0.75384184  0.40688254  1
  Si  Si3102  1  0.43790464  0.75384184  0.65688254  1
  Si  Si3103  1  0.43790464  0.75384184  0.90688254  1
  Si  Si3104  1  0.68790465  0.00384184  0.15688254  1
  Si  Si3105  1  0.68790465  0.00384184  0.40688254  1
  Si  Si3106  1  0.68790465  0.00384184  0.65688254  1
  Si  Si3107  1  0.68790465  0.00384184  0.90688254  1
  Si  Si3108  1  0.68790465  0.25384183  0.15688254  1
  Si  Si3109  1  0.68790465  0.25384183  0.40688254  1
  Si  Si3110  1  0.68790465  0.25384183  0.65688254  1
  Si  Si3111  1  0.68790465  0.25384183  0.90688254  1
  Si  Si3112  1  0.68790465  0.50384184  0.15688254  1
  Si  Si3113  1  0.68790465  0.50384184  0.40688254  1
  Si  Si3114  1  0.68790465  0.50384184  0.65688254  1
  Si  Si3115  1  0.68790465  0.50384184  0.90688254  1
  Si  Si3116  1  0.68790465  0.75384184  0.15688254  1
  Si  Si3117  1  0.68790465  0.75384184  0.40688254  1
  Si  Si3118  1  0.68790465  0.75384184  0.65688254  1
  Si  Si3119  1  0.68790465  0.75384184  0.90688254  1
  Si  Si3120  1  0.93790465  0.00384184  0.15688254  1
  Si  Si3121  1  0.93790465  0.00384184  0.40688254  1
  Si  Si3122  1  0.93790465  0.00384184  0.65688254  1
  Si  Si3123  1  0.93790465  0.00384184  0.90688254  1
  Si  Si3124  1  0.93790465  0.25384183  0.15688254  1
  Si  Si3125  1  0.93790465  0.25384183  0.40688254  1
  Si  Si3126  1  0.93790465  0.25384183  0.65688254  1
  Si  Si3127  1  0.93790465  0.25384183  0.90688254  1
  Si  Si3128  1  0.93790465  0.50384184  0.15688254  1
  Si  Si3129  1  0.93790465  0.50384184  0.40688254  1
  Si  Si3130  1  0.93790465  0.50384184  0.65688254  1
  Si  Si3131  1  0.93790465  0.50384184  0.90688254  1
  Si  Si3132  1  0.93790465  0.75384184  0.15688254  1
  Si  Si3133  1  0.93790465  0.75384184  0.40688254  1
  Si  Si3134  1  0.93790465  0.75384184  0.65688254  1
  Si  Si3135  1  0.93790465  0.75384184  0.90688254  1
  Si  Si3136  1  0.06209535  0.12884184  0.21811746  1
  Si  Si3137  1  0.06209535  0.12884184  0.46811746  1
  Si  Si3138  1  0.06209535  0.12884184  0.71811746  1
  Si  Si3139  1  0.06209535  0.12884184  0.96811746  1
  Si  Si3140  1  0.06209535  0.37884184  0.21811746  1
  Si  Si3141  1  0.06209535  0.37884184  0.46811746  1
  Si  Si3142  1  0.06209535  0.37884184  0.71811746  1
  Si  Si3143  1  0.06209535  0.37884184  0.96811746  1
  Si  Si3144  1  0.06209535  0.62884184  0.21811746  1
  Si  Si3145  1  0.06209535  0.62884184  0.46811746  1
  Si  Si3146  1  0.06209535  0.62884184  0.71811746  1
  Si  Si3147  1  0.06209535  0.62884184  0.96811746  1
  Si  Si3148  1  0.06209535  0.87884184  0.21811746  1
  Si  Si3149  1  0.06209535  0.87884184  0.46811746  1
  Si  Si3150  1  0.06209535  0.87884184  0.71811746  1
  Si  Si3151  1  0.06209535  0.87884184  0.96811746  1
  Si  Si3152  1  0.31209536  0.12884184  0.21811746  1
  Si  Si3153  1  0.31209536  0.12884184  0.46811746  1
  Si  Si3154  1  0.31209536  0.12884184  0.71811746  1
  Si  Si3155  1  0.31209536  0.12884184  0.96811746  1
  Si  Si3156  1  0.31209536  0.37884184  0.21811746  1
  Si  Si3157  1  0.31209536  0.37884184  0.46811746  1
  Si  Si3158  1  0.31209536  0.37884184  0.71811746  1
  Si  Si3159  1  0.31209536  0.37884184  0.96811746  1
  Si  Si3160  1  0.31209536  0.62884184  0.21811746  1
  Si  Si3161  1  0.31209536  0.62884184  0.46811746  1
  Si  Si3162  1  0.31209536  0.62884184  0.71811746  1
  Si  Si3163  1  0.31209536  0.62884184  0.96811746  1
  Si  Si3164  1  0.31209536  0.87884184  0.21811746  1
  Si  Si3165  1  0.31209536  0.87884184  0.46811746  1
  Si  Si3166  1  0.31209536  0.87884184  0.71811746  1
  Si  Si3167  1  0.31209536  0.87884184  0.96811746  1
  Si  Si3168  1  0.56209535  0.12884184  0.21811746  1
  Si  Si3169  1  0.56209535  0.12884184  0.46811746  1
  Si  Si3170  1  0.56209535  0.12884184  0.71811746  1
  Si  Si3171  1  0.56209535  0.12884184  0.96811746  1
  Si  Si3172  1  0.56209535  0.37884184  0.21811746  1
  Si  Si3173  1  0.56209535  0.37884184  0.46811746  1
  Si  Si3174  1  0.56209535  0.37884184  0.71811746  1
  Si  Si3175  1  0.56209535  0.37884184  0.96811746  1
  Si  Si3176  1  0.56209535  0.62884184  0.21811746  1
  Si  Si3177  1  0.56209535  0.62884184  0.46811746  1
  Si  Si3178  1  0.56209535  0.62884184  0.71811746  1
  Si  Si3179  1  0.56209535  0.62884184  0.96811746  1
  Si  Si3180  1  0.56209535  0.87884184  0.21811746  1
  Si  Si3181  1  0.56209535  0.87884184  0.46811746  1
  Si  Si3182  1  0.56209535  0.87884184  0.71811746  1
  Si  Si3183  1  0.56209535  0.87884184  0.96811746  1
  Si  Si3184  1  0.81209535  0.12884184  0.21811746  1
  Si  Si3185  1  0.81209535  0.12884184  0.46811746  1
  Si  Si3186  1  0.81209535  0.12884184  0.71811746  1
  Si  Si3187  1  0.81209535  0.12884184  0.96811746  1
  Si  Si3188  1  0.81209535  0.37884184  0.21811746  1
  Si  Si3189  1  0.81209535  0.37884184  0.46811746  1
  Si  Si3190  1  0.81209535  0.37884184  0.71811746  1
  Si  Si3191  1  0.81209535  0.37884184  0.96811746  1
  Si  Si3192  1  0.81209535  0.62884184  0.21811746  1
  Si  Si3193  1  0.81209535  0.62884184  0.46811746  1
  Si  Si3194  1  0.81209535  0.62884184  0.71811746  1
  Si  Si3195  1  0.81209535  0.62884184  0.96811746  1
  Si  Si3196  1  0.81209535  0.87884184  0.21811746  1
  Si  Si3197  1  0.81209535  0.87884184  0.46811746  1
  Si  Si3198  1  0.81209535  0.87884184  0.71811746  1
  Si  Si3199  1  0.81209535  0.87884184  0.96811746  1
  Si  Si3200  1  0.18709535  0.24615817  0.03188254  1
  Si  Si3201  1  0.18709535  0.24615817  0.28188254  1
  Si  Si3202  1  0.18709535  0.24615817  0.53188254  1
  Si  Si3203  1  0.18709535  0.24615817  0.78188254  1
  Si  Si3204  1  0.18709535  0.49615817  0.03188254  1
  Si  Si3205  1  0.18709535  0.49615817  0.28188254  1
  Si  Si3206  1  0.18709535  0.49615817  0.53188254  1
  Si  Si3207  1  0.18709535  0.49615817  0.78188254  1
  Si  Si3208  1  0.18709535  0.74615816  0.03188254  1
  Si  Si3209  1  0.18709535  0.74615816  0.28188254  1
  Si  Si3210  1  0.18709535  0.74615816  0.53188254  1
  Si  Si3211  1  0.18709535  0.74615816  0.78188254  1
  Si  Si3212  1  0.18709535  0.99615816  0.03188254  1
  Si  Si3213  1  0.18709535  0.99615816  0.28188254  1
  Si  Si3214  1  0.18709535  0.99615816  0.53188254  1
  Si  Si3215  1  0.18709535  0.99615816  0.78188254  1
  Si  Si3216  1  0.43709535  0.24615817  0.03188254  1
  Si  Si3217  1  0.43709535  0.24615817  0.28188254  1
  Si  Si3218  1  0.43709535  0.24615817  0.53188254  1
  Si  Si3219  1  0.43709535  0.24615817  0.78188254  1
  Si  Si3220  1  0.43709535  0.49615817  0.03188254  1
  Si  Si3221  1  0.43709535  0.49615817  0.28188254  1
  Si  Si3222  1  0.43709535  0.49615817  0.53188254  1
  Si  Si3223  1  0.43709535  0.49615817  0.78188254  1
  Si  Si3224  1  0.43709535  0.74615816  0.03188254  1
  Si  Si3225  1  0.43709535  0.74615816  0.28188254  1
  Si  Si3226  1  0.43709535  0.74615816  0.53188254  1
  Si  Si3227  1  0.43709535  0.74615816  0.78188254  1
  Si  Si3228  1  0.43709535  0.99615816  0.03188254  1
  Si  Si3229  1  0.43709535  0.99615816  0.28188254  1
  Si  Si3230  1  0.43709535  0.99615816  0.53188254  1
  Si  Si3231  1  0.43709535  0.99615816  0.78188254  1
  Si  Si3232  1  0.68709535  0.24615817  0.03188254  1
  Si  Si3233  1  0.68709535  0.24615817  0.28188254  1
  Si  Si3234  1  0.68709535  0.24615817  0.53188254  1
  Si  Si3235  1  0.68709535  0.24615817  0.78188254  1
  Si  Si3236  1  0.68709535  0.49615817  0.03188254  1
  Si  Si3237  1  0.68709535  0.49615817  0.28188254  1
  Si  Si3238  1  0.68709535  0.49615817  0.53188254  1
  Si  Si3239  1  0.68709535  0.49615817  0.78188254  1
  Si  Si3240  1  0.68709535  0.74615816  0.03188254  1
  Si  Si3241  1  0.68709535  0.74615816  0.28188254  1
  Si  Si3242  1  0.68709535  0.74615816  0.53188254  1
  Si  Si3243  1  0.68709535  0.74615816  0.78188254  1
  Si  Si3244  1  0.68709535  0.99615816  0.03188254  1
  Si  Si3245  1  0.68709535  0.99615816  0.28188254  1
  Si  Si3246  1  0.68709535  0.99615816  0.53188254  1
  Si  Si3247  1  0.68709535  0.99615816  0.78188254  1
  Si  Si3248  1  0.93709535  0.24615817  0.03188254  1
  Si  Si3249  1  0.93709535  0.24615817  0.28188254  1
  Si  Si3250  1  0.93709535  0.24615817  0.53188254  1
  Si  Si3251  1  0.93709535  0.24615817  0.78188254  1
  Si  Si3252  1  0.93709535  0.49615817  0.03188254  1
  Si  Si3253  1  0.93709535  0.49615817  0.28188254  1
  Si  Si3254  1  0.93709535  0.49615817  0.53188254  1
  Si  Si3255  1  0.93709535  0.49615817  0.78188254  1
  Si  Si3256  1  0.93709535  0.74615816  0.03188254  1
  Si  Si3257  1  0.93709535  0.74615816  0.28188254  1
  Si  Si3258  1  0.93709535  0.74615816  0.53188254  1
  Si  Si3259  1  0.93709535  0.74615816  0.78188254  1
  Si  Si3260  1  0.93709535  0.99615816  0.03188254  1
  Si  Si3261  1  0.93709535  0.99615816  0.28188254  1
  Si  Si3262  1  0.93709535  0.99615816  0.53188254  1
  Si  Si3263  1  0.93709535  0.99615816  0.78188254  1
  Si  Si3264  1  0.06290464  0.12115816  0.09311746  1
  Si  Si3265  1  0.06290464  0.12115816  0.34311746  1
  Si  Si3266  1  0.06290464  0.12115816  0.59311746  1
  Si  Si3267  1  0.06290464  0.12115816  0.84311746  1
  Si  Si3268  1  0.06290464  0.37115816  0.09311746  1
  Si  Si3269  1  0.06290464  0.37115816  0.34311746  1
  Si  Si3270  1  0.06290464  0.37115816  0.59311746  1
  Si  Si3271  1  0.06290464  0.37115816  0.84311746  1
  Si  Si3272  1  0.06290464  0.62115816  0.09311746  1
  Si  Si3273  1  0.06290464  0.62115816  0.34311746  1
  Si  Si3274  1  0.06290464  0.62115816  0.59311746  1
  Si  Si3275  1  0.06290464  0.62115816  0.84311746  1
  Si  Si3276  1  0.06290464  0.87115816  0.09311746  1
  Si  Si3277  1  0.06290464  0.87115816  0.34311746  1
  Si  Si3278  1  0.06290464  0.87115816  0.59311746  1
  Si  Si3279  1  0.06290464  0.87115816  0.84311746  1
  Si  Si3280  1  0.31290464  0.12115816  0.09311746  1
  Si  Si3281  1  0.31290464  0.12115816  0.34311746  1
  Si  Si3282  1  0.31290464  0.12115816  0.59311746  1
  Si  Si3283  1  0.31290464  0.12115816  0.84311746  1
  Si  Si3284  1  0.31290464  0.37115816  0.09311746  1
  Si  Si3285  1  0.31290464  0.37115816  0.34311746  1
  Si  Si3286  1  0.31290464  0.37115816  0.59311746  1
  Si  Si3287  1  0.31290464  0.37115816  0.84311746  1
  Si  Si3288  1  0.31290464  0.62115816  0.09311746  1
  Si  Si3289  1  0.31290464  0.62115816  0.34311746  1
  Si  Si3290  1  0.31290464  0.62115816  0.59311746  1
  Si  Si3291  1  0.31290464  0.62115816  0.84311746  1
  Si  Si3292  1  0.31290464  0.87115816  0.09311746  1
  Si  Si3293  1  0.31290464  0.87115816  0.34311746  1
  Si  Si3294  1  0.31290464  0.87115816  0.59311746  1
  Si  Si3295  1  0.31290464  0.87115816  0.84311746  1
  Si  Si3296  1  0.56290465  0.12115816  0.09311746  1
  Si  Si3297  1  0.56290465  0.12115816  0.34311746  1
  Si  Si3298  1  0.56290465  0.12115816  0.59311746  1
  Si  Si3299  1  0.56290465  0.12115816  0.84311746  1
  Si  Si3300  1  0.56290465  0.37115816  0.09311746  1
  Si  Si3301  1  0.56290465  0.37115816  0.34311746  1
  Si  Si3302  1  0.56290465  0.37115816  0.59311746  1
  Si  Si3303  1  0.56290465  0.37115816  0.84311746  1
  Si  Si3304  1  0.56290465  0.62115816  0.09311746  1
  Si  Si3305  1  0.56290465  0.62115816  0.34311746  1
  Si  Si3306  1  0.56290465  0.62115816  0.59311746  1
  Si  Si3307  1  0.56290465  0.62115816  0.84311746  1
  Si  Si3308  1  0.56290465  0.87115816  0.09311746  1
  Si  Si3309  1  0.56290465  0.87115816  0.34311746  1
  Si  Si3310  1  0.56290465  0.87115816  0.59311746  1
  Si  Si3311  1  0.56290465  0.87115816  0.84311746  1
  Si  Si3312  1  0.81290464  0.12115816  0.09311746  1
  Si  Si3313  1  0.81290464  0.12115816  0.34311746  1
  Si  Si3314  1  0.81290464  0.12115816  0.59311746  1
  Si  Si3315  1  0.81290464  0.12115816  0.84311746  1
  Si  Si3316  1  0.81290464  0.37115816  0.09311746  1
  Si  Si3317  1  0.81290464  0.37115816  0.34311746  1
  Si  Si3318  1  0.81290464  0.37115816  0.59311746  1
  Si  Si3319  1  0.81290464  0.37115816  0.84311746  1
  Si  Si3320  1  0.81290464  0.62115816  0.09311746  1
  Si  Si3321  1  0.81290464  0.62115816  0.34311746  1
  Si  Si3322  1  0.81290464  0.62115816  0.59311746  1
  Si  Si3323  1  0.81290464  0.62115816  0.84311746  1
  Si  Si3324  1  0.81290464  0.87115816  0.09311746  1
  Si  Si3325  1  0.81290464  0.87115816  0.34311746  1
  Si  Si3326  1  0.81290464  0.87115816  0.59311746  1
  Si  Si3327  1  0.81290464  0.87115816  0.84311746  1
  Si  Si3328  1  0.15688254  0.18790465  0.00384184  1
  Si  Si3329  1  0.15688254  0.18790465  0.25384183  1
  Si  Si3330  1  0.15688254  0.18790465  0.50384184  1
  Si  Si3331  1  0.15688254  0.18790465  0.75384184  1
  Si  Si3332  1  0.15688254  0.43790464  0.00384184  1
  Si  Si3333  1  0.15688254  0.43790464  0.25384183  1
  Si  Si3334  1  0.15688254  0.43790464  0.50384184  1
  Si  Si3335  1  0.15688254  0.43790464  0.75384184  1
  Si  Si3336  1  0.15688254  0.68790465  0.00384184  1
  Si  Si3337  1  0.15688254  0.68790465  0.25384183  1
  Si  Si3338  1  0.15688254  0.68790465  0.50384184  1
  Si  Si3339  1  0.15688254  0.68790465  0.75384184  1
  Si  Si3340  1  0.15688254  0.93790465  0.00384184  1
  Si  Si3341  1  0.15688254  0.93790465  0.25384183  1
  Si  Si3342  1  0.15688254  0.93790465  0.50384184  1
  Si  Si3343  1  0.15688254  0.93790465  0.75384184  1
  Si  Si3344  1  0.40688254  0.18790465  0.00384184  1
  Si  Si3345  1  0.40688254  0.18790465  0.25384183  1
  Si  Si3346  1  0.40688254  0.18790465  0.50384184  1
  Si  Si3347  1  0.40688254  0.18790465  0.75384184  1
  Si  Si3348  1  0.40688254  0.43790464  0.00384184  1
  Si  Si3349  1  0.40688254  0.43790464  0.25384183  1
  Si  Si3350  1  0.40688254  0.43790464  0.50384184  1
  Si  Si3351  1  0.40688254  0.43790464  0.75384184  1
  Si  Si3352  1  0.40688254  0.68790465  0.00384184  1
  Si  Si3353  1  0.40688254  0.68790465  0.25384183  1
  Si  Si3354  1  0.40688254  0.68790465  0.50384184  1
  Si  Si3355  1  0.40688254  0.68790465  0.75384184  1
  Si  Si3356  1  0.40688254  0.93790465  0.00384184  1
  Si  Si3357  1  0.40688254  0.93790465  0.25384183  1
  Si  Si3358  1  0.40688254  0.93790465  0.50384184  1
  Si  Si3359  1  0.40688254  0.93790465  0.75384184  1
  Si  Si3360  1  0.65688254  0.18790465  0.00384184  1
  Si  Si3361  1  0.65688254  0.18790465  0.25384183  1
  Si  Si3362  1  0.65688254  0.18790465  0.50384184  1
  Si  Si3363  1  0.65688254  0.18790465  0.75384184  1
  Si  Si3364  1  0.65688254  0.43790464  0.00384184  1
  Si  Si3365  1  0.65688254  0.43790464  0.25384183  1
  Si  Si3366  1  0.65688254  0.43790464  0.50384184  1
  Si  Si3367  1  0.65688254  0.43790464  0.75384184  1
  Si  Si3368  1  0.65688254  0.68790465  0.00384184  1
  Si  Si3369  1  0.65688254  0.68790465  0.25384183  1
  Si  Si3370  1  0.65688254  0.68790465  0.50384184  1
  Si  Si3371  1  0.65688254  0.68790465  0.75384184  1
  Si  Si3372  1  0.65688254  0.93790465  0.00384184  1
  Si  Si3373  1  0.65688254  0.93790465  0.25384183  1
  Si  Si3374  1  0.65688254  0.93790465  0.50384184  1
  Si  Si3375  1  0.65688254  0.93790465  0.75384184  1
  Si  Si3376  1  0.90688254  0.18790465  0.00384184  1
  Si  Si3377  1  0.90688254  0.18790465  0.25384183  1
  Si  Si3378  1  0.90688254  0.18790465  0.50384184  1
  Si  Si3379  1  0.90688254  0.18790465  0.75384184  1
  Si  Si3380  1  0.90688254  0.43790464  0.00384184  1
  Si  Si3381  1  0.90688254  0.43790464  0.25384183  1
  Si  Si3382  1  0.90688254  0.43790464  0.50384184  1
  Si  Si3383  1  0.90688254  0.43790464  0.75384184  1
  Si  Si3384  1  0.90688254  0.68790465  0.00384184  1
  Si  Si3385  1  0.90688254  0.68790465  0.25384183  1
  Si  Si3386  1  0.90688254  0.68790465  0.50384184  1
  Si  Si3387  1  0.90688254  0.68790465  0.75384184  1
  Si  Si3388  1  0.90688254  0.93790465  0.00384184  1
  Si  Si3389  1  0.90688254  0.93790465  0.25384183  1
  Si  Si3390  1  0.90688254  0.93790465  0.50384184  1
  Si  Si3391  1  0.90688254  0.93790465  0.75384184  1
  Si  Si3392  1  0.21811746  0.06209535  0.12884184  1
  Si  Si3393  1  0.21811746  0.06209535  0.37884184  1
  Si  Si3394  1  0.21811746  0.06209535  0.62884184  1
  Si  Si3395  1  0.21811746  0.06209535  0.87884184  1
  Si  Si3396  1  0.21811746  0.31209536  0.12884184  1
  Si  Si3397  1  0.21811746  0.31209536  0.37884184  1
  Si  Si3398  1  0.21811746  0.31209536  0.62884184  1
  Si  Si3399  1  0.21811746  0.31209536  0.87884184  1
  Si  Si3400  1  0.21811746  0.56209535  0.12884184  1
  Si  Si3401  1  0.21811746  0.56209535  0.37884184  1
  Si  Si3402  1  0.21811746  0.56209535  0.62884184  1
  Si  Si3403  1  0.21811746  0.56209535  0.87884184  1
  Si  Si3404  1  0.21811746  0.81209535  0.12884184  1
  Si  Si3405  1  0.21811746  0.81209535  0.37884184  1
  Si  Si3406  1  0.21811746  0.81209535  0.62884184  1
  Si  Si3407  1  0.21811746  0.81209535  0.87884184  1
  Si  Si3408  1  0.46811746  0.06209535  0.12884184  1
  Si  Si3409  1  0.46811746  0.06209535  0.37884184  1
  Si  Si3410  1  0.46811746  0.06209535  0.62884184  1
  Si  Si3411  1  0.46811746  0.06209535  0.87884184  1
  Si  Si3412  1  0.46811746  0.31209536  0.12884184  1
  Si  Si3413  1  0.46811746  0.31209536  0.37884184  1
  Si  Si3414  1  0.46811746  0.31209536  0.62884184  1
  Si  Si3415  1  0.46811746  0.31209536  0.87884184  1
  Si  Si3416  1  0.46811746  0.56209535  0.12884184  1
  Si  Si3417  1  0.46811746  0.56209535  0.37884184  1
  Si  Si3418  1  0.46811746  0.56209535  0.62884184  1
  Si  Si3419  1  0.46811746  0.56209535  0.87884184  1
  Si  Si3420  1  0.46811746  0.81209535  0.12884184  1
  Si  Si3421  1  0.46811746  0.81209535  0.37884184  1
  Si  Si3422  1  0.46811746  0.81209535  0.62884184  1
  Si  Si3423  1  0.46811746  0.81209535  0.87884184  1
  Si  Si3424  1  0.71811746  0.06209535  0.12884184  1
  Si  Si3425  1  0.71811746  0.06209535  0.37884184  1
  Si  Si3426  1  0.71811746  0.06209535  0.62884184  1
  Si  Si3427  1  0.71811746  0.06209535  0.87884184  1
  Si  Si3428  1  0.71811746  0.31209536  0.12884184  1
  Si  Si3429  1  0.71811746  0.31209536  0.37884184  1
  Si  Si3430  1  0.71811746  0.31209536  0.62884184  1
  Si  Si3431  1  0.71811746  0.31209536  0.87884184  1
  Si  Si3432  1  0.71811746  0.56209535  0.12884184  1
  Si  Si3433  1  0.71811746  0.56209535  0.37884184  1
  Si  Si3434  1  0.71811746  0.56209535  0.62884184  1
  Si  Si3435  1  0.71811746  0.56209535  0.87884184  1
  Si  Si3436  1  0.71811746  0.81209535  0.12884184  1
  Si  Si3437  1  0.71811746  0.81209535  0.37884184  1
  Si  Si3438  1  0.71811746  0.81209535  0.62884184  1
  Si  Si3439  1  0.71811746  0.81209535  0.87884184  1
  Si  Si3440  1  0.96811746  0.06209535  0.12884184  1
  Si  Si3441  1  0.96811746  0.06209535  0.37884184  1
  Si  Si3442  1  0.96811746  0.06209535  0.62884184  1
  Si  Si3443  1  0.96811746  0.06209535  0.87884184  1
  Si  Si3444  1  0.96811746  0.31209536  0.12884184  1
  Si  Si3445  1  0.96811746  0.31209536  0.37884184  1
  Si  Si3446  1  0.96811746  0.31209536  0.62884184  1
  Si  Si3447  1  0.96811746  0.31209536  0.87884184  1
  Si  Si3448  1  0.96811746  0.56209535  0.12884184  1
  Si  Si3449  1  0.96811746  0.56209535  0.37884184  1
  Si  Si3450  1  0.96811746  0.56209535  0.62884184  1
  Si  Si3451  1  0.96811746  0.56209535  0.87884184  1
  Si  Si3452  1  0.96811746  0.81209535  0.12884184  1
  Si  Si3453  1  0.96811746  0.81209535  0.37884184  1
  Si  Si3454  1  0.96811746  0.81209535  0.62884184  1
  Si  Si3455  1  0.96811746  0.81209535  0.87884184  1
  Si  Si3456  1  0.03188254  0.18709535  0.24615817  1
  Si  Si3457  1  0.03188254  0.18709535  0.49615817  1
  Si  Si3458  1  0.03188254  0.18709535  0.74615816  1
  Si  Si3459  1  0.03188254  0.18709535  0.99615816  1
  Si  Si3460  1  0.03188254  0.43709535  0.24615817  1
  Si  Si3461  1  0.03188254  0.43709535  0.49615817  1
  Si  Si3462  1  0.03188254  0.43709535  0.74615816  1
  Si  Si3463  1  0.03188254  0.43709535  0.99615816  1
  Si  Si3464  1  0.03188254  0.68709535  0.24615817  1
  Si  Si3465  1  0.03188254  0.68709535  0.49615817  1
  Si  Si3466  1  0.03188254  0.68709535  0.74615816  1
  Si  Si3467  1  0.03188254  0.68709535  0.99615816  1
  Si  Si3468  1  0.03188254  0.93709535  0.24615817  1
  Si  Si3469  1  0.03188254  0.93709535  0.49615817  1
  Si  Si3470  1  0.03188254  0.93709535  0.74615816  1
  Si  Si3471  1  0.03188254  0.93709535  0.99615816  1
  Si  Si3472  1  0.28188254  0.18709535  0.24615817  1
  Si  Si3473  1  0.28188254  0.18709535  0.49615817  1
  Si  Si3474  1  0.28188254  0.18709535  0.74615816  1
  Si  Si3475  1  0.28188254  0.18709535  0.99615816  1
  Si  Si3476  1  0.28188254  0.43709535  0.24615817  1
  Si  Si3477  1  0.28188254  0.43709535  0.49615817  1
  Si  Si3478  1  0.28188254  0.43709535  0.74615816  1
  Si  Si3479  1  0.28188254  0.43709535  0.99615816  1
  Si  Si3480  1  0.28188254  0.68709535  0.24615817  1
  Si  Si3481  1  0.28188254  0.68709535  0.49615817  1
  Si  Si3482  1  0.28188254  0.68709535  0.74615816  1
  Si  Si3483  1  0.28188254  0.68709535  0.99615816  1
  Si  Si3484  1  0.28188254  0.93709535  0.24615817  1
  Si  Si3485  1  0.28188254  0.93709535  0.49615817  1
  Si  Si3486  1  0.28188254  0.93709535  0.74615816  1
  Si  Si3487  1  0.28188254  0.93709535  0.99615816  1
  Si  Si3488  1  0.53188254  0.18709535  0.24615817  1
  Si  Si3489  1  0.53188254  0.18709535  0.49615817  1
  Si  Si3490  1  0.53188254  0.18709535  0.74615816  1
  Si  Si3491  1  0.53188254  0.18709535  0.99615816  1
  Si  Si3492  1  0.53188254  0.43709535  0.24615817  1
  Si  Si3493  1  0.53188254  0.43709535  0.49615817  1
  Si  Si3494  1  0.53188254  0.43709535  0.74615816  1
  Si  Si3495  1  0.53188254  0.43709535  0.99615816  1
  Si  Si3496  1  0.53188254  0.68709535  0.24615817  1
  Si  Si3497  1  0.53188254  0.68709535  0.49615817  1
  Si  Si3498  1  0.53188254  0.68709535  0.74615816  1
  Si  Si3499  1  0.53188254  0.68709535  0.99615816  1
  Si  Si3500  1  0.53188254  0.93709535  0.24615817  1
  Si  Si3501  1  0.53188254  0.93709535  0.49615817  1
  Si  Si3502  1  0.53188254  0.93709535  0.74615816  1
  Si  Si3503  1  0.53188254  0.93709535  0.99615816  1
  Si  Si3504  1  0.78188254  0.18709535  0.24615817  1
  Si  Si3505  1  0.78188254  0.18709535  0.49615817  1
  Si  Si3506  1  0.78188254  0.18709535  0.74615816  1
  Si  Si3507  1  0.78188254  0.18709535  0.99615816  1
  Si  Si3508  1  0.78188254  0.43709535  0.24615817  1
  Si  Si3509  1  0.78188254  0.43709535  0.49615817  1
  Si  Si3510  1  0.78188254  0.43709535  0.74615816  1
  Si  Si3511  1  0.78188254  0.43709535  0.99615816  1
  Si  Si3512  1  0.78188254  0.68709535  0.24615817  1
  Si  Si3513  1  0.78188254  0.68709535  0.49615817  1
  Si  Si3514  1  0.78188254  0.68709535  0.74615816  1
  Si  Si3515  1  0.78188254  0.68709535  0.99615816  1
  Si  Si3516  1  0.78188254  0.93709535  0.24615817  1
  Si  Si3517  1  0.78188254  0.93709535  0.49615817  1
  Si  Si3518  1  0.78188254  0.93709535  0.74615816  1
  Si  Si3519  1  0.78188254  0.93709535  0.99615816  1
  Si  Si3520  1  0.09311746  0.06290464  0.12115816  1
  Si  Si3521  1  0.09311746  0.06290464  0.37115816  1
  Si  Si3522  1  0.09311746  0.06290464  0.62115816  1
  Si  Si3523  1  0.09311746  0.06290464  0.87115816  1
  Si  Si3524  1  0.09311746  0.31290464  0.12115816  1
  Si  Si3525  1  0.09311746  0.31290464  0.37115816  1
  Si  Si3526  1  0.09311746  0.31290464  0.62115816  1
  Si  Si3527  1  0.09311746  0.31290464  0.87115816  1
  Si  Si3528  1  0.09311746  0.56290465  0.12115816  1
  Si  Si3529  1  0.09311746  0.56290465  0.37115816  1
  Si  Si3530  1  0.09311746  0.56290465  0.62115816  1
  Si  Si3531  1  0.09311746  0.56290465  0.87115816  1
  Si  Si3532  1  0.09311746  0.81290464  0.12115816  1
  Si  Si3533  1  0.09311746  0.81290464  0.37115816  1
  Si  Si3534  1  0.09311746  0.81290464  0.62115816  1
  Si  Si3535  1  0.09311746  0.81290464  0.87115816  1
  Si  Si3536  1  0.34311746  0.06290464  0.12115816  1
  Si  Si3537  1  0.34311746  0.06290464  0.37115816  1
  Si  Si3538  1  0.34311746  0.06290464  0.62115816  1
  Si  Si3539  1  0.34311746  0.06290464  0.87115816  1
  Si  Si3540  1  0.34311746  0.31290464  0.12115816  1
  Si  Si3541  1  0.34311746  0.31290464  0.37115816  1
  Si  Si3542  1  0.34311746  0.31290464  0.62115816  1
  Si  Si3543  1  0.34311746  0.31290464  0.87115816  1
  Si  Si3544  1  0.34311746  0.56290465  0.12115816  1
  Si  Si3545  1  0.34311746  0.56290465  0.37115816  1
  Si  Si3546  1  0.34311746  0.56290465  0.62115816  1
  Si  Si3547  1  0.34311746  0.56290465  0.87115816  1
  Si  Si3548  1  0.34311746  0.81290464  0.12115816  1
  Si  Si3549  1  0.34311746  0.81290464  0.37115816  1
  Si  Si3550  1  0.34311746  0.81290464  0.62115816  1
  Si  Si3551  1  0.34311746  0.81290464  0.87115816  1
  Si  Si3552  1  0.59311746  0.06290464  0.12115816  1
  Si  Si3553  1  0.59311746  0.06290464  0.37115816  1
  Si  Si3554  1  0.59311746  0.06290464  0.62115816  1
  Si  Si3555  1  0.59311746  0.06290464  0.87115816  1
  Si  Si3556  1  0.59311746  0.31290464  0.12115816  1
  Si  Si3557  1  0.59311746  0.31290464  0.37115816  1
  Si  Si3558  1  0.59311746  0.31290464  0.62115816  1
  Si  Si3559  1  0.59311746  0.31290464  0.87115816  1
  Si  Si3560  1  0.59311746  0.56290465  0.12115816  1
  Si  Si3561  1  0.59311746  0.56290465  0.37115816  1
  Si  Si3562  1  0.59311746  0.56290465  0.62115816  1
  Si  Si3563  1  0.59311746  0.56290465  0.87115816  1
  Si  Si3564  1  0.59311746  0.81290464  0.12115816  1
  Si  Si3565  1  0.59311746  0.81290464  0.37115816  1
  Si  Si3566  1  0.59311746  0.81290464  0.62115816  1
  Si  Si3567  1  0.59311746  0.81290464  0.87115816  1
  Si  Si3568  1  0.84311746  0.06290464  0.12115816  1
  Si  Si3569  1  0.84311746  0.06290464  0.37115816  1
  Si  Si3570  1  0.84311746  0.06290464  0.62115816  1
  Si  Si3571  1  0.84311746  0.06290464  0.87115816  1
  Si  Si3572  1  0.84311746  0.31290464  0.12115816  1
  Si  Si3573  1  0.84311746  0.31290464  0.37115816  1
  Si  Si3574  1  0.84311746  0.31290464  0.62115816  1
  Si  Si3575  1  0.84311746  0.31290464  0.87115816  1
  Si  Si3576  1  0.84311746  0.56290465  0.12115816  1
  Si  Si3577  1  0.84311746  0.56290465  0.37115816  1
  Si  Si3578  1  0.84311746  0.56290465  0.62115816  1
  Si  Si3579  1  0.84311746  0.56290465  0.87115816  1
  Si  Si3580  1  0.84311746  0.81290464  0.12115816  1
  Si  Si3581  1  0.84311746  0.81290464  0.37115816  1
  Si  Si3582  1  0.84311746  0.81290464  0.62115816  1
  Si  Si3583  1  0.84311746  0.81290464  0.87115816  1
  Si  Si3584  1  0.00384184  0.15688254  0.18790465  1
  Si  Si3585  1  0.00384184  0.15688254  0.43790464  1
  Si  Si3586  1  0.00384184  0.15688254  0.68790465  1
  Si  Si3587  1  0.00384184  0.15688254  0.93790465  1
  Si  Si3588  1  0.00384184  0.40688254  0.18790465  1
  Si  Si3589  1  0.00384184  0.40688254  0.43790464  1
  Si  Si3590  1  0.00384184  0.40688254  0.68790465  1
  Si  Si3591  1  0.00384184  0.40688254  0.93790465  1
  Si  Si3592  1  0.00384184  0.65688254  0.18790465  1
  Si  Si3593  1  0.00384184  0.65688254  0.43790464  1
  Si  Si3594  1  0.00384184  0.65688254  0.68790465  1
  Si  Si3595  1  0.00384184  0.65688254  0.93790465  1
  Si  Si3596  1  0.00384184  0.90688254  0.18790465  1
  Si  Si3597  1  0.00384184  0.90688254  0.43790464  1
  Si  Si3598  1  0.00384184  0.90688254  0.68790465  1
  Si  Si3599  1  0.00384184  0.90688254  0.93790465  1
  Si  Si3600  1  0.25384183  0.15688254  0.18790465  1
  Si  Si3601  1  0.25384183  0.15688254  0.43790464  1
  Si  Si3602  1  0.25384183  0.15688254  0.68790465  1
  Si  Si3603  1  0.25384183  0.15688254  0.93790465  1
  Si  Si3604  1  0.25384183  0.40688254  0.18790465  1
  Si  Si3605  1  0.25384183  0.40688254  0.43790464  1
  Si  Si3606  1  0.25384183  0.40688254  0.68790465  1
  Si  Si3607  1  0.25384183  0.40688254  0.93790465  1
  Si  Si3608  1  0.25384183  0.65688254  0.18790465  1
  Si  Si3609  1  0.25384183  0.65688254  0.43790464  1
  Si  Si3610  1  0.25384183  0.65688254  0.68790465  1
  Si  Si3611  1  0.25384183  0.65688254  0.93790465  1
  Si  Si3612  1  0.25384183  0.90688254  0.18790465  1
  Si  Si3613  1  0.25384183  0.90688254  0.43790464  1
  Si  Si3614  1  0.25384183  0.90688254  0.68790465  1
  Si  Si3615  1  0.25384183  0.90688254  0.93790465  1
  Si  Si3616  1  0.50384184  0.15688254  0.18790465  1
  Si  Si3617  1  0.50384184  0.15688254  0.43790464  1
  Si  Si3618  1  0.50384184  0.15688254  0.68790465  1
  Si  Si3619  1  0.50384184  0.15688254  0.93790465  1
  Si  Si3620  1  0.50384184  0.40688254  0.18790465  1
  Si  Si3621  1  0.50384184  0.40688254  0.43790464  1
  Si  Si3622  1  0.50384184  0.40688254  0.68790465  1
  Si  Si3623  1  0.50384184  0.40688254  0.93790465  1
  Si  Si3624  1  0.50384184  0.65688254  0.18790465  1
  Si  Si3625  1  0.50384184  0.65688254  0.43790464  1
  Si  Si3626  1  0.50384184  0.65688254  0.68790465  1
  Si  Si3627  1  0.50384184  0.65688254  0.93790465  1
  Si  Si3628  1  0.50384184  0.90688254  0.18790465  1
  Si  Si3629  1  0.50384184  0.90688254  0.43790464  1
  Si  Si3630  1  0.50384184  0.90688254  0.68790465  1
  Si  Si3631  1  0.50384184  0.90688254  0.93790465  1
  Si  Si3632  1  0.75384184  0.15688254  0.18790465  1
  Si  Si3633  1  0.75384184  0.15688254  0.43790464  1
  Si  Si3634  1  0.75384184  0.15688254  0.68790465  1
  Si  Si3635  1  0.75384184  0.15688254  0.93790465  1
  Si  Si3636  1  0.75384184  0.40688254  0.18790465  1
  Si  Si3637  1  0.75384184  0.40688254  0.43790464  1
  Si  Si3638  1  0.75384184  0.40688254  0.68790465  1
  Si  Si3639  1  0.75384184  0.40688254  0.93790465  1
  Si  Si3640  1  0.75384184  0.65688254  0.18790465  1
  Si  Si3641  1  0.75384184  0.65688254  0.43790464  1
  Si  Si3642  1  0.75384184  0.65688254  0.68790465  1
  Si  Si3643  1  0.75384184  0.65688254  0.93790465  1
  Si  Si3644  1  0.75384184  0.90688254  0.18790465  1
  Si  Si3645  1  0.75384184  0.90688254  0.43790464  1
  Si  Si3646  1  0.75384184  0.90688254  0.68790465  1
  Si  Si3647  1  0.75384184  0.90688254  0.93790465  1
  Si  Si3648  1  0.12884184  0.21811746  0.06209535  1
  Si  Si3649  1  0.12884184  0.21811746  0.31209536  1
  Si  Si3650  1  0.12884184  0.21811746  0.56209535  1
  Si  Si3651  1  0.12884184  0.21811746  0.81209535  1
  Si  Si3652  1  0.12884184  0.46811746  0.06209535  1
  Si  Si3653  1  0.12884184  0.46811746  0.31209536  1
  Si  Si3654  1  0.12884184  0.46811746  0.56209535  1
  Si  Si3655  1  0.12884184  0.46811746  0.81209535  1
  Si  Si3656  1  0.12884184  0.71811746  0.06209535  1
  Si  Si3657  1  0.12884184  0.71811746  0.31209536  1
  Si  Si3658  1  0.12884184  0.71811746  0.56209535  1
  Si  Si3659  1  0.12884184  0.71811746  0.81209535  1
  Si  Si3660  1  0.12884184  0.96811746  0.06209535  1
  Si  Si3661  1  0.12884184  0.96811746  0.31209536  1
  Si  Si3662  1  0.12884184  0.96811746  0.56209535  1
  Si  Si3663  1  0.12884184  0.96811746  0.81209535  1
  Si  Si3664  1  0.37884184  0.21811746  0.06209535  1
  Si  Si3665  1  0.37884184  0.21811746  0.31209536  1
  Si  Si3666  1  0.37884184  0.21811746  0.56209535  1
  Si  Si3667  1  0.37884184  0.21811746  0.81209535  1
  Si  Si3668  1  0.37884184  0.46811746  0.06209535  1
  Si  Si3669  1  0.37884184  0.46811746  0.31209536  1
  Si  Si3670  1  0.37884184  0.46811746  0.56209535  1
  Si  Si3671  1  0.37884184  0.46811746  0.81209535  1
  Si  Si3672  1  0.37884184  0.71811746  0.06209535  1
  Si  Si3673  1  0.37884184  0.71811746  0.31209536  1
  Si  Si3674  1  0.37884184  0.71811746  0.56209535  1
  Si  Si3675  1  0.37884184  0.71811746  0.81209535  1
  Si  Si3676  1  0.37884184  0.96811746  0.06209535  1
  Si  Si3677  1  0.37884184  0.96811746  0.31209536  1
  Si  Si3678  1  0.37884184  0.96811746  0.56209535  1
  Si  Si3679  1  0.37884184  0.96811746  0.81209535  1
  Si  Si3680  1  0.62884184  0.21811746  0.06209535  1
  Si  Si3681  1  0.62884184  0.21811746  0.31209536  1
  Si  Si3682  1  0.62884184  0.21811746  0.56209535  1
  Si  Si3683  1  0.62884184  0.21811746  0.81209535  1
  Si  Si3684  1  0.62884184  0.46811746  0.06209535  1
  Si  Si3685  1  0.62884184  0.46811746  0.31209536  1
  Si  Si3686  1  0.62884184  0.46811746  0.56209535  1
  Si  Si3687  1  0.62884184  0.46811746  0.81209535  1
  Si  Si3688  1  0.62884184  0.71811746  0.06209535  1
  Si  Si3689  1  0.62884184  0.71811746  0.31209536  1
  Si  Si3690  1  0.62884184  0.71811746  0.56209535  1
  Si  Si3691  1  0.62884184  0.71811746  0.81209535  1
  Si  Si3692  1  0.62884184  0.96811746  0.06209535  1
  Si  Si3693  1  0.62884184  0.96811746  0.31209536  1
  Si  Si3694  1  0.62884184  0.96811746  0.56209535  1
  Si  Si3695  1  0.62884184  0.96811746  0.81209535  1
  Si  Si3696  1  0.87884184  0.21811746  0.06209535  1
  Si  Si3697  1  0.87884184  0.21811746  0.31209536  1
  Si  Si3698  1  0.87884184  0.21811746  0.56209535  1
  Si  Si3699  1  0.87884184  0.21811746  0.81209535  1
  Si  Si3700  1  0.87884184  0.46811746  0.06209535  1
  Si  Si3701  1  0.87884184  0.46811746  0.31209536  1
  Si  Si3702  1  0.87884184  0.46811746  0.56209535  1
  Si  Si3703  1  0.87884184  0.46811746  0.81209535  1
  Si  Si3704  1  0.87884184  0.71811746  0.06209535  1
  Si  Si3705  1  0.87884184  0.71811746  0.31209536  1
  Si  Si3706  1  0.87884184  0.71811746  0.56209535  1
  Si  Si3707  1  0.87884184  0.71811746  0.81209535  1
  Si  Si3708  1  0.87884184  0.96811746  0.06209535  1
  Si  Si3709  1  0.87884184  0.96811746  0.31209536  1
  Si  Si3710  1  0.87884184  0.96811746  0.56209535  1
  Si  Si3711  1  0.87884184  0.96811746  0.81209535  1
  Si  Si3712  1  0.24615817  0.03188254  0.18709535  1
  Si  Si3713  1  0.24615817  0.03188254  0.43709535  1
  Si  Si3714  1  0.24615817  0.03188254  0.68709535  1
  Si  Si3715  1  0.24615817  0.03188254  0.93709535  1
  Si  Si3716  1  0.24615817  0.28188254  0.18709535  1
  Si  Si3717  1  0.24615817  0.28188254  0.43709535  1
  Si  Si3718  1  0.24615817  0.28188254  0.68709535  1
  Si  Si3719  1  0.24615817  0.28188254  0.93709535  1
  Si  Si3720  1  0.24615817  0.53188254  0.18709535  1
  Si  Si3721  1  0.24615817  0.53188254  0.43709535  1
  Si  Si3722  1  0.24615817  0.53188254  0.68709535  1
  Si  Si3723  1  0.24615817  0.53188254  0.93709535  1
  Si  Si3724  1  0.24615817  0.78188254  0.18709535  1
  Si  Si3725  1  0.24615817  0.78188254  0.43709535  1
  Si  Si3726  1  0.24615817  0.78188254  0.68709535  1
  Si  Si3727  1  0.24615817  0.78188254  0.93709535  1
  Si  Si3728  1  0.49615817  0.03188254  0.18709535  1
  Si  Si3729  1  0.49615817  0.03188254  0.43709535  1
  Si  Si3730  1  0.49615817  0.03188254  0.68709535  1
  Si  Si3731  1  0.49615817  0.03188254  0.93709535  1
  Si  Si3732  1  0.49615817  0.28188254  0.18709535  1
  Si  Si3733  1  0.49615817  0.28188254  0.43709535  1
  Si  Si3734  1  0.49615817  0.28188254  0.68709535  1
  Si  Si3735  1  0.49615817  0.28188254  0.93709535  1
  Si  Si3736  1  0.49615817  0.53188254  0.18709535  1
  Si  Si3737  1  0.49615817  0.53188254  0.43709535  1
  Si  Si3738  1  0.49615817  0.53188254  0.68709535  1
  Si  Si3739  1  0.49615817  0.53188254  0.93709535  1
  Si  Si3740  1  0.49615817  0.78188254  0.18709535  1
  Si  Si3741  1  0.49615817  0.78188254  0.43709535  1
  Si  Si3742  1  0.49615817  0.78188254  0.68709535  1
  Si  Si3743  1  0.49615817  0.78188254  0.93709535  1
  Si  Si3744  1  0.74615816  0.03188254  0.18709535  1
  Si  Si3745  1  0.74615816  0.03188254  0.43709535  1
  Si  Si3746  1  0.74615816  0.03188254  0.68709535  1
  Si  Si3747  1  0.74615816  0.03188254  0.93709535  1
  Si  Si3748  1  0.74615816  0.28188254  0.18709535  1
  Si  Si3749  1  0.74615816  0.28188254  0.43709535  1
  Si  Si3750  1  0.74615816  0.28188254  0.68709535  1
  Si  Si3751  1  0.74615816  0.28188254  0.93709535  1
  Si  Si3752  1  0.74615816  0.53188254  0.18709535  1
  Si  Si3753  1  0.74615816  0.53188254  0.43709535  1
  Si  Si3754  1  0.74615816  0.53188254  0.68709535  1
  Si  Si3755  1  0.74615816  0.53188254  0.93709535  1
  Si  Si3756  1  0.74615816  0.78188254  0.18709535  1
  Si  Si3757  1  0.74615816  0.78188254  0.43709535  1
  Si  Si3758  1  0.74615816  0.78188254  0.68709535  1
  Si  Si3759  1  0.74615816  0.78188254  0.93709535  1
  Si  Si3760  1  0.99615816  0.03188254  0.18709535  1
  Si  Si3761  1  0.99615816  0.03188254  0.43709535  1
  Si  Si3762  1  0.99615816  0.03188254  0.68709535  1
  Si  Si3763  1  0.99615816  0.03188254  0.93709535  1
  Si  Si3764  1  0.99615816  0.28188254  0.18709535  1
  Si  Si3765  1  0.99615816  0.28188254  0.43709535  1
  Si  Si3766  1  0.99615816  0.28188254  0.68709535  1
  Si  Si3767  1  0.99615816  0.28188254  0.93709535  1
  Si  Si3768  1  0.99615816  0.53188254  0.18709535  1
  Si  Si3769  1  0.99615816  0.53188254  0.43709535  1
  Si  Si3770  1  0.99615816  0.53188254  0.68709535  1
  Si  Si3771  1  0.99615816  0.53188254  0.93709535  1
  Si  Si3772  1  0.99615816  0.78188254  0.18709535  1
  Si  Si3773  1  0.99615816  0.78188254  0.43709535  1
  Si  Si3774  1  0.99615816  0.78188254  0.68709535  1
  Si  Si3775  1  0.99615816  0.78188254  0.93709535  1
  Si  Si3776  1  0.12115816  0.09311746  0.06290464  1
  Si  Si3777  1  0.12115816  0.09311746  0.31290464  1
  Si  Si3778  1  0.12115816  0.09311746  0.56290465  1
  Si  Si3779  1  0.12115816  0.09311746  0.81290464  1
  Si  Si3780  1  0.12115816  0.34311746  0.06290464  1
  Si  Si3781  1  0.12115816  0.34311746  0.31290464  1
  Si  Si3782  1  0.12115816  0.34311746  0.56290465  1
  Si  Si3783  1  0.12115816  0.34311746  0.81290464  1
  Si  Si3784  1  0.12115816  0.59311746  0.06290464  1
  Si  Si3785  1  0.12115816  0.59311746  0.31290464  1
  Si  Si3786  1  0.12115816  0.59311746  0.56290465  1
  Si  Si3787  1  0.12115816  0.59311746  0.81290464  1
  Si  Si3788  1  0.12115816  0.84311746  0.06290464  1
  Si  Si3789  1  0.12115816  0.84311746  0.31290464  1
  Si  Si3790  1  0.12115816  0.84311746  0.56290465  1
  Si  Si3791  1  0.12115816  0.84311746  0.81290464  1
  Si  Si3792  1  0.37115816  0.09311746  0.06290464  1
  Si  Si3793  1  0.37115816  0.09311746  0.31290464  1
  Si  Si3794  1  0.37115816  0.09311746  0.56290465  1
  Si  Si3795  1  0.37115816  0.09311746  0.81290464  1
  Si  Si3796  1  0.37115816  0.34311746  0.06290464  1
  Si  Si3797  1  0.37115816  0.34311746  0.31290464  1
  Si  Si3798  1  0.37115816  0.34311746  0.56290465  1
  Si  Si3799  1  0.37115816  0.34311746  0.81290464  1
  Si  Si3800  1  0.37115816  0.59311746  0.06290464  1
  Si  Si3801  1  0.37115816  0.59311746  0.31290464  1
  Si  Si3802  1  0.37115816  0.59311746  0.56290465  1
  Si  Si3803  1  0.37115816  0.59311746  0.81290464  1
  Si  Si3804  1  0.37115816  0.84311746  0.06290464  1
  Si  Si3805  1  0.37115816  0.84311746  0.31290464  1
  Si  Si3806  1  0.37115816  0.84311746  0.56290465  1
  Si  Si3807  1  0.37115816  0.84311746  0.81290464  1
  Si  Si3808  1  0.62115816  0.09311746  0.06290464  1
  Si  Si3809  1  0.62115816  0.09311746  0.31290464  1
  Si  Si3810  1  0.62115816  0.09311746  0.56290465  1
  Si  Si3811  1  0.62115816  0.09311746  0.81290464  1
  Si  Si3812  1  0.62115816  0.34311746  0.06290464  1
  Si  Si3813  1  0.62115816  0.34311746  0.31290464  1
  Si  Si3814  1  0.62115816  0.34311746  0.56290465  1
  Si  Si3815  1  0.62115816  0.34311746  0.81290464  1
  Si  Si3816  1  0.62115816  0.59311746  0.06290464  1
  Si  Si3817  1  0.62115816  0.59311746  0.31290464  1
  Si  Si3818  1  0.62115816  0.59311746  0.56290465  1
  Si  Si3819  1  0.62115816  0.59311746  0.81290464  1
  Si  Si3820  1  0.62115816  0.84311746  0.06290464  1
  Si  Si3821  1  0.62115816  0.84311746  0.31290464  1
  Si  Si3822  1  0.62115816  0.84311746  0.56290465  1
  Si  Si3823  1  0.62115816  0.84311746  0.81290464  1
  Si  Si3824  1  0.87115816  0.09311746  0.06290464  1
  Si  Si3825  1  0.87115816  0.09311746  0.31290464  1
  Si  Si3826  1  0.87115816  0.09311746  0.56290465  1
  Si  Si3827  1  0.87115816  0.09311746  0.81290464  1
  Si  Si3828  1  0.87115816  0.34311746  0.06290464  1
  Si  Si3829  1  0.87115816  0.34311746  0.31290464  1
  Si  Si3830  1  0.87115816  0.34311746  0.56290465  1
  Si  Si3831  1  0.87115816  0.34311746  0.81290464  1
  Si  Si3832  1  0.87115816  0.59311746  0.06290464  1
  Si  Si3833  1  0.87115816  0.59311746  0.31290464  1
  Si  Si3834  1  0.87115816  0.59311746  0.56290465  1
  Si  Si3835  1  0.87115816  0.59311746  0.81290464  1
  Si  Si3836  1  0.87115816  0.84311746  0.06290464  1
  Si  Si3837  1  0.87115816  0.84311746  0.31290464  1
  Si  Si3838  1  0.87115816  0.84311746  0.56290465  1
  Si  Si3839  1  0.87115816  0.84311746  0.81290464  1
  N  N3840  1  0.12404439  0.19529602  0.02740986  1
  N  N3841  1  0.12404439  0.19529602  0.27740985  1
  N  N3842  1  0.12404439  0.19529602  0.52740986  1
  N  N3843  1  0.12404439  0.19529602  0.77740986  1
  N  N3844  1  0.12404439  0.44529602  0.02740986  1
  N  N3845  1  0.12404439  0.44529602  0.27740985  1
  N  N3846  1  0.12404439  0.44529602  0.52740986  1
  N  N3847  1  0.12404439  0.44529602  0.77740986  1
  N  N3848  1  0.12404439  0.69529602  0.02740986  1
  N  N3849  1  0.12404439  0.69529602  0.27740985  1
  N  N3850  1  0.12404439  0.69529602  0.52740986  1
  N  N3851  1  0.12404439  0.69529602  0.77740986  1
  N  N3852  1  0.12404439  0.94529602  0.02740986  1
  N  N3853  1  0.12404439  0.94529602  0.27740985  1
  N  N3854  1  0.12404439  0.94529602  0.52740986  1
  N  N3855  1  0.12404439  0.94529602  0.77740986  1
  N  N3856  1  0.37404439  0.19529602  0.02740986  1
  N  N3857  1  0.37404439  0.19529602  0.27740985  1
  N  N3858  1  0.37404439  0.19529602  0.52740986  1
  N  N3859  1  0.37404439  0.19529602  0.77740986  1
  N  N3860  1  0.37404439  0.44529602  0.02740986  1
  N  N3861  1  0.37404439  0.44529602  0.27740985  1
  N  N3862  1  0.37404439  0.44529602  0.52740986  1
  N  N3863  1  0.37404439  0.44529602  0.77740986  1
  N  N3864  1  0.37404439  0.69529602  0.02740986  1
  N  N3865  1  0.37404439  0.69529602  0.27740985  1
  N  N3866  1  0.37404439  0.69529602  0.52740986  1
  N  N3867  1  0.37404439  0.69529602  0.77740986  1
  N  N3868  1  0.37404439  0.94529602  0.02740986  1
  N  N3869  1  0.37404439  0.94529602  0.27740985  1
  N  N3870  1  0.37404439  0.94529602  0.52740986  1
  N  N3871  1  0.37404439  0.94529602  0.77740986  1
  N  N3872  1  0.62404439  0.19529602  0.02740986  1
  N  N3873  1  0.62404439  0.19529602  0.27740985  1
  N  N3874  1  0.62404439  0.19529602  0.52740986  1
  N  N3875  1  0.62404439  0.19529602  0.77740986  1
  N  N3876  1  0.62404439  0.44529602  0.02740986  1
  N  N3877  1  0.62404439  0.44529602  0.27740985  1
  N  N3878  1  0.62404439  0.44529602  0.52740986  1
  N  N3879  1  0.62404439  0.44529602  0.77740986  1
  N  N3880  1  0.62404439  0.69529602  0.02740986  1
  N  N3881  1  0.62404439  0.69529602  0.27740985  1
  N  N3882  1  0.62404439  0.69529602  0.52740986  1
  N  N3883  1  0.62404439  0.69529602  0.77740986  1
  N  N3884  1  0.62404439  0.94529602  0.02740986  1
  N  N3885  1  0.62404439  0.94529602  0.27740985  1
  N  N3886  1  0.62404439  0.94529602  0.52740986  1
  N  N3887  1  0.62404439  0.94529602  0.77740986  1
  N  N3888  1  0.87404439  0.19529602  0.02740986  1
  N  N3889  1  0.87404439  0.19529602  0.27740985  1
  N  N3890  1  0.87404439  0.19529602  0.52740986  1
  N  N3891  1  0.87404439  0.19529602  0.77740986  1
  N  N3892  1  0.87404439  0.44529602  0.02740986  1
  N  N3893  1  0.87404439  0.44529602  0.27740985  1
  N  N3894  1  0.87404439  0.44529602  0.52740986  1
  N  N3895  1  0.87404439  0.44529602  0.77740986  1
  N  N3896  1  0.87404439  0.69529602  0.02740986  1
  N  N3897  1  0.87404439  0.69529602  0.27740985  1
  N  N3898  1  0.87404439  0.69529602  0.52740986  1
  N  N3899  1  0.87404439  0.69529602  0.77740986  1
  N  N3900  1  0.87404439  0.94529602  0.02740986  1
  N  N3901  1  0.87404439  0.94529602  0.27740985  1
  N  N3902  1  0.87404439  0.94529602  0.52740986  1
  N  N3903  1  0.87404439  0.94529602  0.77740986  1
  N  N3904  1  0.12595561  0.07029602  0.09759015  1
  N  N3905  1  0.12595561  0.07029602  0.34759015  1
  N  N3906  1  0.12595561  0.07029602  0.59759014  1
  N  N3907  1  0.12595561  0.07029602  0.84759015  1
  N  N3908  1  0.12595561  0.32029602  0.09759015  1
  N  N3909  1  0.12595561  0.32029602  0.34759015  1
  N  N3910  1  0.12595561  0.32029602  0.59759014  1
  N  N3911  1  0.12595561  0.32029602  0.84759015  1
  N  N3912  1  0.12595561  0.57029602  0.09759015  1
  N  N3913  1  0.12595561  0.57029602  0.34759015  1
  N  N3914  1  0.12595561  0.57029602  0.59759014  1
  N  N3915  1  0.12595561  0.57029602  0.84759015  1
  N  N3916  1  0.12595561  0.82029602  0.09759015  1
  N  N3917  1  0.12595561  0.82029602  0.34759015  1
  N  N3918  1  0.12595561  0.82029602  0.59759014  1
  N  N3919  1  0.12595561  0.82029602  0.84759015  1
  N  N3920  1  0.37595561  0.07029602  0.09759015  1
  N  N3921  1  0.37595561  0.07029602  0.34759015  1
  N  N3922  1  0.37595561  0.07029602  0.59759014  1
  N  N3923  1  0.37595561  0.07029602  0.84759015  1
  N  N3924  1  0.37595561  0.32029602  0.09759015  1
  N  N3925  1  0.37595561  0.32029602  0.34759015  1
  N  N3926  1  0.37595561  0.32029602  0.59759014  1
  N  N3927  1  0.37595561  0.32029602  0.84759015  1
  N  N3928  1  0.37595561  0.57029602  0.09759015  1
  N  N3929  1  0.37595561  0.57029602  0.34759015  1
  N  N3930  1  0.37595561  0.57029602  0.59759014  1
  N  N3931  1  0.37595561  0.57029602  0.84759015  1
  N  N3932  1  0.37595561  0.82029602  0.09759015  1
  N  N3933  1  0.37595561  0.82029602  0.34759015  1
  N  N3934  1  0.37595561  0.82029602  0.59759014  1
  N  N3935  1  0.37595561  0.82029602  0.84759015  1
  N  N3936  1  0.62595561  0.07029602  0.09759015  1
  N  N3937  1  0.62595561  0.07029602  0.34759015  1
  N  N3938  1  0.62595561  0.07029602  0.59759014  1
  N  N3939  1  0.62595561  0.07029602  0.84759015  1
  N  N3940  1  0.62595561  0.32029602  0.09759015  1
  N  N3941  1  0.62595561  0.32029602  0.34759015  1
  N  N3942  1  0.62595561  0.32029602  0.59759014  1
  N  N3943  1  0.62595561  0.32029602  0.84759015  1
  N  N3944  1  0.62595561  0.57029602  0.09759015  1
  N  N3945  1  0.62595561  0.57029602  0.34759015  1
  N  N3946  1  0.62595561  0.57029602  0.59759014  1
  N  N3947  1  0.62595561  0.57029602  0.84759015  1
  N  N3948  1  0.62595561  0.82029602  0.09759015  1
  N  N3949  1  0.62595561  0.82029602  0.34759015  1
  N  N3950  1  0.62595561  0.82029602  0.59759014  1
  N  N3951  1  0.62595561  0.82029602  0.84759015  1
  N  N3952  1  0.87595561  0.07029602  0.09759015  1
  N  N3953  1  0.87595561  0.07029602  0.34759015  1
  N  N3954  1  0.87595561  0.07029602  0.59759014  1
  N  N3955  1  0.87595561  0.07029602  0.84759015  1
  N  N3956  1  0.87595561  0.32029602  0.09759015  1
  N  N3957  1  0.87595561  0.32029602  0.34759015  1
  N  N3958  1  0.87595561  0.32029602  0.59759014  1
  N  N3959  1  0.87595561  0.32029602  0.84759015  1
  N  N3960  1  0.87595561  0.57029602  0.09759015  1
  N  N3961  1  0.87595561  0.57029602  0.34759015  1
  N  N3962  1  0.87595561  0.57029602  0.59759014  1
  N  N3963  1  0.87595561  0.57029602  0.84759015  1
  N  N3964  1  0.87595561  0.82029602  0.09759015  1
  N  N3965  1  0.87595561  0.82029602  0.34759015  1
  N  N3966  1  0.87595561  0.82029602  0.59759014  1
  N  N3967  1  0.87595561  0.82029602  0.84759015  1
  N  N3968  1  0.00095561  0.05470397  0.15240986  1
  N  N3969  1  0.00095561  0.05470397  0.40240986  1
  N  N3970  1  0.00095561  0.05470397  0.65240986  1
  N  N3971  1  0.00095561  0.05470397  0.90240986  1
  N  N3972  1  0.00095561  0.30470397  0.15240986  1
  N  N3973  1  0.00095561  0.30470397  0.40240986  1
  N  N3974  1  0.00095561  0.30470397  0.65240986  1
  N  N3975  1  0.00095561  0.30470397  0.90240986  1
  N  N3976  1  0.00095561  0.55470397  0.15240986  1
  N  N3977  1  0.00095561  0.55470397  0.40240986  1
  N  N3978  1  0.00095561  0.55470397  0.65240986  1
  N  N3979  1  0.00095561  0.55470397  0.90240986  1
  N  N3980  1  0.00095561  0.80470397  0.15240986  1
  N  N3981  1  0.00095561  0.80470397  0.40240986  1
  N  N3982  1  0.00095561  0.80470397  0.65240986  1
  N  N3983  1  0.00095561  0.80470397  0.90240986  1
  N  N3984  1  0.25095561  0.05470397  0.15240986  1
  N  N3985  1  0.25095561  0.05470397  0.40240986  1
  N  N3986  1  0.25095561  0.05470397  0.65240986  1
  N  N3987  1  0.25095561  0.05470397  0.90240986  1
  N  N3988  1  0.25095561  0.30470397  0.15240986  1
  N  N3989  1  0.25095561  0.30470397  0.40240986  1
  N  N3990  1  0.25095561  0.30470397  0.65240986  1
  N  N3991  1  0.25095561  0.30470397  0.90240986  1
  N  N3992  1  0.25095561  0.55470397  0.15240986  1
  N  N3993  1  0.25095561  0.55470397  0.40240986  1
  N  N3994  1  0.25095561  0.55470397  0.65240986  1
  N  N3995  1  0.25095561  0.55470397  0.90240986  1
  N  N3996  1  0.25095561  0.80470397  0.15240986  1
  N  N3997  1  0.25095561  0.80470397  0.40240986  1
  N  N3998  1  0.25095561  0.80470397  0.65240986  1
  N  N3999  1  0.25095561  0.80470397  0.90240986  1
  N  N4000  1  0.50095561  0.05470397  0.15240986  1
  N  N4001  1  0.50095561  0.05470397  0.40240986  1
  N  N4002  1  0.50095561  0.05470397  0.65240986  1
  N  N4003  1  0.50095561  0.05470397  0.90240986  1
  N  N4004  1  0.50095561  0.30470397  0.15240986  1
  N  N4005  1  0.50095561  0.30470397  0.40240986  1
  N  N4006  1  0.50095561  0.30470397  0.65240986  1
  N  N4007  1  0.50095561  0.30470397  0.90240986  1
  N  N4008  1  0.50095561  0.55470397  0.15240986  1
  N  N4009  1  0.50095561  0.55470397  0.40240986  1
  N  N4010  1  0.50095561  0.55470397  0.65240986  1
  N  N4011  1  0.50095561  0.55470397  0.90240986  1
  N  N4012  1  0.50095561  0.80470397  0.15240986  1
  N  N4013  1  0.50095561  0.80470397  0.40240986  1
  N  N4014  1  0.50095561  0.80470397  0.65240986  1
  N  N4015  1  0.50095561  0.80470397  0.90240986  1
  N  N4016  1  0.75095561  0.05470397  0.15240986  1
  N  N4017  1  0.75095561  0.05470397  0.40240986  1
  N  N4018  1  0.75095561  0.05470397  0.65240986  1
  N  N4019  1  0.75095561  0.05470397  0.90240986  1
  N  N4020  1  0.75095561  0.30470397  0.15240986  1
  N  N4021  1  0.75095561  0.30470397  0.40240986  1
  N  N4022  1  0.75095561  0.30470397  0.65240986  1
  N  N4023  1  0.75095561  0.30470397  0.90240986  1
  N  N4024  1  0.75095561  0.55470397  0.15240986  1
  N  N4025  1  0.75095561  0.55470397  0.40240986  1
  N  N4026  1  0.75095561  0.55470397  0.65240986  1
  N  N4027  1  0.75095561  0.55470397  0.90240986  1
  N  N4028  1  0.75095561  0.80470397  0.15240986  1
  N  N4029  1  0.75095561  0.80470397  0.40240986  1
  N  N4030  1  0.75095561  0.80470397  0.65240986  1
  N  N4031  1  0.75095561  0.80470397  0.90240986  1
  N  N4032  1  0.24904439  0.17970397  0.22259014  1
  N  N4033  1  0.24904439  0.17970397  0.47259015  1
  N  N4034  1  0.24904439  0.17970397  0.72259014  1
  N  N4035  1  0.24904439  0.17970397  0.97259014  1
  N  N4036  1  0.24904439  0.42970397  0.22259014  1
  N  N4037  1  0.24904439  0.42970397  0.47259015  1
  N  N4038  1  0.24904439  0.42970397  0.72259014  1
  N  N4039  1  0.24904439  0.42970397  0.97259014  1
  N  N4040  1  0.24904439  0.67970398  0.22259014  1
  N  N4041  1  0.24904439  0.67970398  0.47259015  1
  N  N4042  1  0.24904439  0.67970398  0.72259014  1
  N  N4043  1  0.24904439  0.67970398  0.97259014  1
  N  N4044  1  0.24904439  0.92970398  0.22259014  1
  N  N4045  1  0.24904439  0.92970398  0.47259015  1
  N  N4046  1  0.24904439  0.92970398  0.72259014  1
  N  N4047  1  0.24904439  0.92970398  0.97259014  1
  N  N4048  1  0.49904439  0.17970397  0.22259014  1
  N  N4049  1  0.49904439  0.17970397  0.47259015  1
  N  N4050  1  0.49904439  0.17970397  0.72259014  1
  N  N4051  1  0.49904439  0.17970397  0.97259014  1
  N  N4052  1  0.49904439  0.42970397  0.22259014  1
  N  N4053  1  0.49904439  0.42970397  0.47259015  1
  N  N4054  1  0.49904439  0.42970397  0.72259014  1
  N  N4055  1  0.49904439  0.42970397  0.97259014  1
  N  N4056  1  0.49904439  0.67970398  0.22259014  1
  N  N4057  1  0.49904439  0.67970398  0.47259015  1
  N  N4058  1  0.49904439  0.67970398  0.72259014  1
  N  N4059  1  0.49904439  0.67970398  0.97259014  1
  N  N4060  1  0.49904439  0.92970398  0.22259014  1
  N  N4061  1  0.49904439  0.92970398  0.47259015  1
  N  N4062  1  0.49904439  0.92970398  0.72259014  1
  N  N4063  1  0.49904439  0.92970398  0.97259014  1
  N  N4064  1  0.74904439  0.17970397  0.22259014  1
  N  N4065  1  0.74904439  0.17970397  0.47259015  1
  N  N4066  1  0.74904439  0.17970397  0.72259014  1
  N  N4067  1  0.74904439  0.17970397  0.97259014  1
  N  N4068  1  0.74904439  0.42970397  0.22259014  1
  N  N4069  1  0.74904439  0.42970397  0.47259015  1
  N  N4070  1  0.74904439  0.42970397  0.72259014  1
  N  N4071  1  0.74904439  0.42970397  0.97259014  1
  N  N4072  1  0.74904439  0.67970398  0.22259014  1
  N  N4073  1  0.74904439  0.67970398  0.47259015  1
  N  N4074  1  0.74904439  0.67970398  0.72259014  1
  N  N4075  1  0.74904439  0.67970398  0.97259014  1
  N  N4076  1  0.74904439  0.92970398  0.22259014  1
  N  N4077  1  0.74904439  0.92970398  0.47259015  1
  N  N4078  1  0.74904439  0.92970398  0.72259014  1
  N  N4079  1  0.74904439  0.92970398  0.97259014  1
  N  N4080  1  0.99904439  0.17970397  0.22259014  1
  N  N4081  1  0.99904439  0.17970397  0.47259015  1
  N  N4082  1  0.99904439  0.17970397  0.72259014  1
  N  N4083  1  0.99904439  0.17970397  0.97259014  1
  N  N4084  1  0.99904439  0.42970397  0.22259014  1
  N  N4085  1  0.99904439  0.42970397  0.47259015  1
  N  N4086  1  0.99904439  0.42970397  0.72259014  1
  N  N4087  1  0.99904439  0.42970397  0.97259014  1
  N  N4088  1  0.99904439  0.67970398  0.22259014  1
  N  N4089  1  0.99904439  0.67970398  0.47259015  1
  N  N4090  1  0.99904439  0.67970398  0.72259014  1
  N  N4091  1  0.99904439  0.67970398  0.97259014  1
  N  N4092  1  0.99904439  0.92970398  0.22259014  1
  N  N4093  1  0.99904439  0.92970398  0.47259015  1
  N  N4094  1  0.99904439  0.92970398  0.72259014  1
  N  N4095  1  0.99904439  0.92970398  0.97259014  1
  N  N4096  1  0.02740986  0.12404439  0.19529602  1
  N  N4097  1  0.02740986  0.12404439  0.44529602  1
  N  N4098  1  0.02740986  0.12404439  0.69529602  1
  N  N4099  1  0.02740986  0.12404439  0.94529602  1
  N  N4100  1  0.02740986  0.37404439  0.19529602  1
  N  N4101  1  0.02740986  0.37404439  0.44529602  1
  N  N4102  1  0.02740986  0.37404439  0.69529602  1
  N  N4103  1  0.02740986  0.37404439  0.94529602  1
  N  N4104  1  0.02740986  0.62404439  0.19529602  1
  N  N4105  1  0.02740986  0.62404439  0.44529602  1
  N  N4106  1  0.02740986  0.62404439  0.69529602  1
  N  N4107  1  0.02740986  0.62404439  0.94529602  1
  N  N4108  1  0.02740986  0.87404439  0.19529602  1
  N  N4109  1  0.02740986  0.87404439  0.44529602  1
  N  N4110  1  0.02740986  0.87404439  0.69529602  1
  N  N4111  1  0.02740986  0.87404439  0.94529602  1
  N  N4112  1  0.27740985  0.12404439  0.19529602  1
  N  N4113  1  0.27740985  0.12404439  0.44529602  1
  N  N4114  1  0.27740985  0.12404439  0.69529602  1
  N  N4115  1  0.27740985  0.12404439  0.94529602  1
  N  N4116  1  0.27740985  0.37404439  0.19529602  1
  N  N4117  1  0.27740985  0.37404439  0.44529602  1
  N  N4118  1  0.27740985  0.37404439  0.69529602  1
  N  N4119  1  0.27740985  0.37404439  0.94529602  1
  N  N4120  1  0.27740985  0.62404439  0.19529602  1
  N  N4121  1  0.27740985  0.62404439  0.44529602  1
  N  N4122  1  0.27740985  0.62404439  0.69529602  1
  N  N4123  1  0.27740985  0.62404439  0.94529602  1
  N  N4124  1  0.27740985  0.87404439  0.19529602  1
  N  N4125  1  0.27740985  0.87404439  0.44529602  1
  N  N4126  1  0.27740985  0.87404439  0.69529602  1
  N  N4127  1  0.27740985  0.87404439  0.94529602  1
  N  N4128  1  0.52740986  0.12404439  0.19529602  1
  N  N4129  1  0.52740986  0.12404439  0.44529602  1
  N  N4130  1  0.52740986  0.12404439  0.69529602  1
  N  N4131  1  0.52740986  0.12404439  0.94529602  1
  N  N4132  1  0.52740986  0.37404439  0.19529602  1
  N  N4133  1  0.52740986  0.37404439  0.44529602  1
  N  N4134  1  0.52740986  0.37404439  0.69529602  1
  N  N4135  1  0.52740986  0.37404439  0.94529602  1
  N  N4136  1  0.52740986  0.62404439  0.19529602  1
  N  N4137  1  0.52740986  0.62404439  0.44529602  1
  N  N4138  1  0.52740986  0.62404439  0.69529602  1
  N  N4139  1  0.52740986  0.62404439  0.94529602  1
  N  N4140  1  0.52740986  0.87404439  0.19529602  1
  N  N4141  1  0.52740986  0.87404439  0.44529602  1
  N  N4142  1  0.52740986  0.87404439  0.69529602  1
  N  N4143  1  0.52740986  0.87404439  0.94529602  1
  N  N4144  1  0.77740986  0.12404439  0.19529602  1
  N  N4145  1  0.77740986  0.12404439  0.44529602  1
  N  N4146  1  0.77740986  0.12404439  0.69529602  1
  N  N4147  1  0.77740986  0.12404439  0.94529602  1
  N  N4148  1  0.77740986  0.37404439  0.19529602  1
  N  N4149  1  0.77740986  0.37404439  0.44529602  1
  N  N4150  1  0.77740986  0.37404439  0.69529602  1
  N  N4151  1  0.77740986  0.37404439  0.94529602  1
  N  N4152  1  0.77740986  0.62404439  0.19529602  1
  N  N4153  1  0.77740986  0.62404439  0.44529602  1
  N  N4154  1  0.77740986  0.62404439  0.69529602  1
  N  N4155  1  0.77740986  0.62404439  0.94529602  1
  N  N4156  1  0.77740986  0.87404439  0.19529602  1
  N  N4157  1  0.77740986  0.87404439  0.44529602  1
  N  N4158  1  0.77740986  0.87404439  0.69529602  1
  N  N4159  1  0.77740986  0.87404439  0.94529602  1
  N  N4160  1  0.09759015  0.12595561  0.07029602  1
  N  N4161  1  0.09759015  0.12595561  0.32029602  1
  N  N4162  1  0.09759015  0.12595561  0.57029602  1
  N  N4163  1  0.09759015  0.12595561  0.82029602  1
  N  N4164  1  0.09759015  0.37595561  0.07029602  1
  N  N4165  1  0.09759015  0.37595561  0.32029602  1
  N  N4166  1  0.09759015  0.37595561  0.57029602  1
  N  N4167  1  0.09759015  0.37595561  0.82029602  1
  N  N4168  1  0.09759015  0.62595561  0.07029602  1
  N  N4169  1  0.09759015  0.62595561  0.32029602  1
  N  N4170  1  0.09759015  0.62595561  0.57029602  1
  N  N4171  1  0.09759015  0.62595561  0.82029602  1
  N  N4172  1  0.09759015  0.87595561  0.07029602  1
  N  N4173  1  0.09759015  0.87595561  0.32029602  1
  N  N4174  1  0.09759015  0.87595561  0.57029602  1
  N  N4175  1  0.09759015  0.87595561  0.82029602  1
  N  N4176  1  0.34759015  0.12595561  0.07029602  1
  N  N4177  1  0.34759015  0.12595561  0.32029602  1
  N  N4178  1  0.34759015  0.12595561  0.57029602  1
  N  N4179  1  0.34759015  0.12595561  0.82029602  1
  N  N4180  1  0.34759015  0.37595561  0.07029602  1
  N  N4181  1  0.34759015  0.37595561  0.32029602  1
  N  N4182  1  0.34759015  0.37595561  0.57029602  1
  N  N4183  1  0.34759015  0.37595561  0.82029602  1
  N  N4184  1  0.34759015  0.62595561  0.07029602  1
  N  N4185  1  0.34759015  0.62595561  0.32029602  1
  N  N4186  1  0.34759015  0.62595561  0.57029602  1
  N  N4187  1  0.34759015  0.62595561  0.82029602  1
  N  N4188  1  0.34759015  0.87595561  0.07029602  1
  N  N4189  1  0.34759015  0.87595561  0.32029602  1
  N  N4190  1  0.34759015  0.87595561  0.57029602  1
  N  N4191  1  0.34759015  0.87595561  0.82029602  1
  N  N4192  1  0.59759014  0.12595561  0.07029602  1
  N  N4193  1  0.59759014  0.12595561  0.32029602  1
  N  N4194  1  0.59759014  0.12595561  0.57029602  1
  N  N4195  1  0.59759014  0.12595561  0.82029602  1
  N  N4196  1  0.59759014  0.37595561  0.07029602  1
  N  N4197  1  0.59759014  0.37595561  0.32029602  1
  N  N4198  1  0.59759014  0.37595561  0.57029602  1
  N  N4199  1  0.59759014  0.37595561  0.82029602  1
  N  N4200  1  0.59759014  0.62595561  0.07029602  1
  N  N4201  1  0.59759014  0.62595561  0.32029602  1
  N  N4202  1  0.59759014  0.62595561  0.57029602  1
  N  N4203  1  0.59759014  0.62595561  0.82029602  1
  N  N4204  1  0.59759014  0.87595561  0.07029602  1
  N  N4205  1  0.59759014  0.87595561  0.32029602  1
  N  N4206  1  0.59759014  0.87595561  0.57029602  1
  N  N4207  1  0.59759014  0.87595561  0.82029602  1
  N  N4208  1  0.84759015  0.12595561  0.07029602  1
  N  N4209  1  0.84759015  0.12595561  0.32029602  1
  N  N4210  1  0.84759015  0.12595561  0.57029602  1
  N  N4211  1  0.84759015  0.12595561  0.82029602  1
  N  N4212  1  0.84759015  0.37595561  0.07029602  1
  N  N4213  1  0.84759015  0.37595561  0.32029602  1
  N  N4214  1  0.84759015  0.37595561  0.57029602  1
  N  N4215  1  0.84759015  0.37595561  0.82029602  1
  N  N4216  1  0.84759015  0.62595561  0.07029602  1
  N  N4217  1  0.84759015  0.62595561  0.32029602  1
  N  N4218  1  0.84759015  0.62595561  0.57029602  1
  N  N4219  1  0.84759015  0.62595561  0.82029602  1
  N  N4220  1  0.84759015  0.87595561  0.07029602  1
  N  N4221  1  0.84759015  0.87595561  0.32029602  1
  N  N4222  1  0.84759015  0.87595561  0.57029602  1
  N  N4223  1  0.84759015  0.87595561  0.82029602  1
  N  N4224  1  0.15240986  0.00095561  0.05470397  1
  N  N4225  1  0.15240986  0.00095561  0.30470397  1
  N  N4226  1  0.15240986  0.00095561  0.55470397  1
  N  N4227  1  0.15240986  0.00095561  0.80470397  1
  N  N4228  1  0.15240986  0.25095561  0.05470397  1
  N  N4229  1  0.15240986  0.25095561  0.30470397  1
  N  N4230  1  0.15240986  0.25095561  0.55470397  1
  N  N4231  1  0.15240986  0.25095561  0.80470397  1
  N  N4232  1  0.15240986  0.50095561  0.05470397  1
  N  N4233  1  0.15240986  0.50095561  0.30470397  1
  N  N4234  1  0.15240986  0.50095561  0.55470397  1
  N  N4235  1  0.15240986  0.50095561  0.80470397  1
  N  N4236  1  0.15240986  0.75095561  0.05470397  1
  N  N4237  1  0.15240986  0.75095561  0.30470397  1
  N  N4238  1  0.15240986  0.75095561  0.55470397  1
  N  N4239  1  0.15240986  0.75095561  0.80470397  1
  N  N4240  1  0.40240986  0.00095561  0.05470397  1
  N  N4241  1  0.40240986  0.00095561  0.30470397  1
  N  N4242  1  0.40240986  0.00095561  0.55470397  1
  N  N4243  1  0.40240986  0.00095561  0.80470397  1
  N  N4244  1  0.40240986  0.25095561  0.05470397  1
  N  N4245  1  0.40240986  0.25095561  0.30470397  1
  N  N4246  1  0.40240986  0.25095561  0.55470397  1
  N  N4247  1  0.40240986  0.25095561  0.80470397  1
  N  N4248  1  0.40240986  0.50095561  0.05470397  1
  N  N4249  1  0.40240986  0.50095561  0.30470397  1
  N  N4250  1  0.40240986  0.50095561  0.55470397  1
  N  N4251  1  0.40240986  0.50095561  0.80470397  1
  N  N4252  1  0.40240986  0.75095561  0.05470397  1
  N  N4253  1  0.40240986  0.75095561  0.30470397  1
  N  N4254  1  0.40240986  0.75095561  0.55470397  1
  N  N4255  1  0.40240986  0.75095561  0.80470397  1
  N  N4256  1  0.65240986  0.00095561  0.05470397  1
  N  N4257  1  0.65240986  0.00095561  0.30470397  1
  N  N4258  1  0.65240986  0.00095561  0.55470397  1
  N  N4259  1  0.65240986  0.00095561  0.80470397  1
  N  N4260  1  0.65240986  0.25095561  0.05470397  1
  N  N4261  1  0.65240986  0.25095561  0.30470397  1
  N  N4262  1  0.65240986  0.25095561  0.55470397  1
  N  N4263  1  0.65240986  0.25095561  0.80470397  1
  N  N4264  1  0.65240986  0.50095561  0.05470397  1
  N  N4265  1  0.65240986  0.50095561  0.30470397  1
  N  N4266  1  0.65240986  0.50095561  0.55470397  1
  N  N4267  1  0.65240986  0.50095561  0.80470397  1
  N  N4268  1  0.65240986  0.75095561  0.05470397  1
  N  N4269  1  0.65240986  0.75095561  0.30470397  1
  N  N4270  1  0.65240986  0.75095561  0.55470397  1
  N  N4271  1  0.65240986  0.75095561  0.80470397  1
  N  N4272  1  0.90240986  0.00095561  0.05470397  1
  N  N4273  1  0.90240986  0.00095561  0.30470397  1
  N  N4274  1  0.90240986  0.00095561  0.55470397  1
  N  N4275  1  0.90240986  0.00095561  0.80470397  1
  N  N4276  1  0.90240986  0.25095561  0.05470397  1
  N  N4277  1  0.90240986  0.25095561  0.30470397  1
  N  N4278  1  0.90240986  0.25095561  0.55470397  1
  N  N4279  1  0.90240986  0.25095561  0.80470397  1
  N  N4280  1  0.90240986  0.50095561  0.05470397  1
  N  N4281  1  0.90240986  0.50095561  0.30470397  1
  N  N4282  1  0.90240986  0.50095561  0.55470397  1
  N  N4283  1  0.90240986  0.50095561  0.80470397  1
  N  N4284  1  0.90240986  0.75095561  0.05470397  1
  N  N4285  1  0.90240986  0.75095561  0.30470397  1
  N  N4286  1  0.90240986  0.75095561  0.55470397  1
  N  N4287  1  0.90240986  0.75095561  0.80470397  1
  N  N4288  1  0.22259014  0.24904439  0.17970397  1
  N  N4289  1  0.22259014  0.24904439  0.42970397  1
  N  N4290  1  0.22259014  0.24904439  0.67970398  1
  N  N4291  1  0.22259014  0.24904439  0.92970398  1
  N  N4292  1  0.22259014  0.49904439  0.17970397  1
  N  N4293  1  0.22259014  0.49904439  0.42970397  1
  N  N4294  1  0.22259014  0.49904439  0.67970398  1
  N  N4295  1  0.22259014  0.49904439  0.92970398  1
  N  N4296  1  0.22259014  0.74904439  0.17970397  1
  N  N4297  1  0.22259014  0.74904439  0.42970397  1
  N  N4298  1  0.22259014  0.74904439  0.67970398  1
  N  N4299  1  0.22259014  0.74904439  0.92970398  1
  N  N4300  1  0.22259014  0.99904439  0.17970397  1
  N  N4301  1  0.22259014  0.99904439  0.42970397  1
  N  N4302  1  0.22259014  0.99904439  0.67970398  1
  N  N4303  1  0.22259014  0.99904439  0.92970398  1
  N  N4304  1  0.47259015  0.24904439  0.17970397  1
  N  N4305  1  0.47259015  0.24904439  0.42970397  1
  N  N4306  1  0.47259015  0.24904439  0.67970398  1
  N  N4307  1  0.47259015  0.24904439  0.92970398  1
  N  N4308  1  0.47259015  0.49904439  0.17970397  1
  N  N4309  1  0.47259015  0.49904439  0.42970397  1
  N  N4310  1  0.47259015  0.49904439  0.67970398  1
  N  N4311  1  0.47259015  0.49904439  0.92970398  1
  N  N4312  1  0.47259015  0.74904439  0.17970397  1
  N  N4313  1  0.47259015  0.74904439  0.42970397  1
  N  N4314  1  0.47259015  0.74904439  0.67970398  1
  N  N4315  1  0.47259015  0.74904439  0.92970398  1
  N  N4316  1  0.47259015  0.99904439  0.17970397  1
  N  N4317  1  0.47259015  0.99904439  0.42970397  1
  N  N4318  1  0.47259015  0.99904439  0.67970398  1
  N  N4319  1  0.47259015  0.99904439  0.92970398  1
  N  N4320  1  0.72259014  0.24904439  0.17970397  1
  N  N4321  1  0.72259014  0.24904439  0.42970397  1
  N  N4322  1  0.72259014  0.24904439  0.67970398  1
  N  N4323  1  0.72259014  0.24904439  0.92970398  1
  N  N4324  1  0.72259014  0.49904439  0.17970397  1
  N  N4325  1  0.72259014  0.49904439  0.42970397  1
  N  N4326  1  0.72259014  0.49904439  0.67970398  1
  N  N4327  1  0.72259014  0.49904439  0.92970398  1
  N  N4328  1  0.72259014  0.74904439  0.17970397  1
  N  N4329  1  0.72259014  0.74904439  0.42970397  1
  N  N4330  1  0.72259014  0.74904439  0.67970398  1
  N  N4331  1  0.72259014  0.74904439  0.92970398  1
  N  N4332  1  0.72259014  0.99904439  0.17970397  1
  N  N4333  1  0.72259014  0.99904439  0.42970397  1
  N  N4334  1  0.72259014  0.99904439  0.67970398  1
  N  N4335  1  0.72259014  0.99904439  0.92970398  1
  N  N4336  1  0.97259014  0.24904439  0.17970397  1
  N  N4337  1  0.97259014  0.24904439  0.42970397  1
  N  N4338  1  0.97259014  0.24904439  0.67970398  1
  N  N4339  1  0.97259014  0.24904439  0.92970398  1
  N  N4340  1  0.97259014  0.49904439  0.17970397  1
  N  N4341  1  0.97259014  0.49904439  0.42970397  1
  N  N4342  1  0.97259014  0.49904439  0.67970398  1
  N  N4343  1  0.97259014  0.49904439  0.92970398  1
  N  N4344  1  0.97259014  0.74904439  0.17970397  1
  N  N4345  1  0.97259014  0.74904439  0.42970397  1
  N  N4346  1  0.97259014  0.74904439  0.67970398  1
  N  N4347  1  0.97259014  0.74904439  0.92970398  1
  N  N4348  1  0.97259014  0.99904439  0.17970397  1
  N  N4349  1  0.97259014  0.99904439  0.42970397  1
  N  N4350  1  0.97259014  0.99904439  0.67970398  1
  N  N4351  1  0.97259014  0.99904439  0.92970398  1
  N  N4352  1  0.19529602  0.02740986  0.12404439  1
  N  N4353  1  0.19529602  0.02740986  0.37404439  1
  N  N4354  1  0.19529602  0.02740986  0.62404439  1
  N  N4355  1  0.19529602  0.02740986  0.87404439  1
  N  N4356  1  0.19529602  0.27740985  0.12404439  1
  N  N4357  1  0.19529602  0.27740985  0.37404439  1
  N  N4358  1  0.19529602  0.27740985  0.62404439  1
  N  N4359  1  0.19529602  0.27740985  0.87404439  1
  N  N4360  1  0.19529602  0.52740986  0.12404439  1
  N  N4361  1  0.19529602  0.52740986  0.37404439  1
  N  N4362  1  0.19529602  0.52740986  0.62404439  1
  N  N4363  1  0.19529602  0.52740986  0.87404439  1
  N  N4364  1  0.19529602  0.77740986  0.12404439  1
  N  N4365  1  0.19529602  0.77740986  0.37404439  1
  N  N4366  1  0.19529602  0.77740986  0.62404439  1
  N  N4367  1  0.19529602  0.77740986  0.87404439  1
  N  N4368  1  0.44529602  0.02740986  0.12404439  1
  N  N4369  1  0.44529602  0.02740986  0.37404439  1
  N  N4370  1  0.44529602  0.02740986  0.62404439  1
  N  N4371  1  0.44529602  0.02740986  0.87404439  1
  N  N4372  1  0.44529602  0.27740985  0.12404439  1
  N  N4373  1  0.44529602  0.27740985  0.37404439  1
  N  N4374  1  0.44529602  0.27740985  0.62404439  1
  N  N4375  1  0.44529602  0.27740985  0.87404439  1
  N  N4376  1  0.44529602  0.52740986  0.12404439  1
  N  N4377  1  0.44529602  0.52740986  0.37404439  1
  N  N4378  1  0.44529602  0.52740986  0.62404439  1
  N  N4379  1  0.44529602  0.52740986  0.87404439  1
  N  N4380  1  0.44529602  0.77740986  0.12404439  1
  N  N4381  1  0.44529602  0.77740986  0.37404439  1
  N  N4382  1  0.44529602  0.77740986  0.62404439  1
  N  N4383  1  0.44529602  0.77740986  0.87404439  1
  N  N4384  1  0.69529602  0.02740986  0.12404439  1
  N  N4385  1  0.69529602  0.02740986  0.37404439  1
  N  N4386  1  0.69529602  0.02740986  0.62404439  1
  N  N4387  1  0.69529602  0.02740986  0.87404439  1
  N  N4388  1  0.69529602  0.27740985  0.12404439  1
  N  N4389  1  0.69529602  0.27740985  0.37404439  1
  N  N4390  1  0.69529602  0.27740985  0.62404439  1
  N  N4391  1  0.69529602  0.27740985  0.87404439  1
  N  N4392  1  0.69529602  0.52740986  0.12404439  1
  N  N4393  1  0.69529602  0.52740986  0.37404439  1
  N  N4394  1  0.69529602  0.52740986  0.62404439  1
  N  N4395  1  0.69529602  0.52740986  0.87404439  1
  N  N4396  1  0.69529602  0.77740986  0.12404439  1
  N  N4397  1  0.69529602  0.77740986  0.37404439  1
  N  N4398  1  0.69529602  0.77740986  0.62404439  1
  N  N4399  1  0.69529602  0.77740986  0.87404439  1
  N  N4400  1  0.94529602  0.02740986  0.12404439  1
  N  N4401  1  0.94529602  0.02740986  0.37404439  1
  N  N4402  1  0.94529602  0.02740986  0.62404439  1
  N  N4403  1  0.94529602  0.02740986  0.87404439  1
  N  N4404  1  0.94529602  0.27740985  0.12404439  1
  N  N4405  1  0.94529602  0.27740985  0.37404439  1
  N  N4406  1  0.94529602  0.27740985  0.62404439  1
  N  N4407  1  0.94529602  0.27740985  0.87404439  1
  N  N4408  1  0.94529602  0.52740986  0.12404439  1
  N  N4409  1  0.94529602  0.52740986  0.37404439  1
  N  N4410  1  0.94529602  0.52740986  0.62404439  1
  N  N4411  1  0.94529602  0.52740986  0.87404439  1
  N  N4412  1  0.94529602  0.77740986  0.12404439  1
  N  N4413  1  0.94529602  0.77740986  0.37404439  1
  N  N4414  1  0.94529602  0.77740986  0.62404439  1
  N  N4415  1  0.94529602  0.77740986  0.87404439  1
  N  N4416  1  0.07029602  0.09759015  0.12595561  1
  N  N4417  1  0.07029602  0.09759015  0.37595561  1
  N  N4418  1  0.07029602  0.09759015  0.62595561  1
  N  N4419  1  0.07029602  0.09759015  0.87595561  1
  N  N4420  1  0.07029602  0.34759015  0.12595561  1
  N  N4421  1  0.07029602  0.34759015  0.37595561  1
  N  N4422  1  0.07029602  0.34759015  0.62595561  1
  N  N4423  1  0.07029602  0.34759015  0.87595561  1
  N  N4424  1  0.07029602  0.59759014  0.12595561  1
  N  N4425  1  0.07029602  0.59759014  0.37595561  1
  N  N4426  1  0.07029602  0.59759014  0.62595561  1
  N  N4427  1  0.07029602  0.59759014  0.87595561  1
  N  N4428  1  0.07029602  0.84759015  0.12595561  1
  N  N4429  1  0.07029602  0.84759015  0.37595561  1
  N  N4430  1  0.07029602  0.84759015  0.62595561  1
  N  N4431  1  0.07029602  0.84759015  0.87595561  1
  N  N4432  1  0.32029602  0.09759015  0.12595561  1
  N  N4433  1  0.32029602  0.09759015  0.37595561  1
  N  N4434  1  0.32029602  0.09759015  0.62595561  1
  N  N4435  1  0.32029602  0.09759015  0.87595561  1
  N  N4436  1  0.32029602  0.34759015  0.12595561  1
  N  N4437  1  0.32029602  0.34759015  0.37595561  1
  N  N4438  1  0.32029602  0.34759015  0.62595561  1
  N  N4439  1  0.32029602  0.34759015  0.87595561  1
  N  N4440  1  0.32029602  0.59759014  0.12595561  1
  N  N4441  1  0.32029602  0.59759014  0.37595561  1
  N  N4442  1  0.32029602  0.59759014  0.62595561  1
  N  N4443  1  0.32029602  0.59759014  0.87595561  1
  N  N4444  1  0.32029602  0.84759015  0.12595561  1
  N  N4445  1  0.32029602  0.84759015  0.37595561  1
  N  N4446  1  0.32029602  0.84759015  0.62595561  1
  N  N4447  1  0.32029602  0.84759015  0.87595561  1
  N  N4448  1  0.57029602  0.09759015  0.12595561  1
  N  N4449  1  0.57029602  0.09759015  0.37595561  1
  N  N4450  1  0.57029602  0.09759015  0.62595561  1
  N  N4451  1  0.57029602  0.09759015  0.87595561  1
  N  N4452  1  0.57029602  0.34759015  0.12595561  1
  N  N4453  1  0.57029602  0.34759015  0.37595561  1
  N  N4454  1  0.57029602  0.34759015  0.62595561  1
  N  N4455  1  0.57029602  0.34759015  0.87595561  1
  N  N4456  1  0.57029602  0.59759014  0.12595561  1
  N  N4457  1  0.57029602  0.59759014  0.37595561  1
  N  N4458  1  0.57029602  0.59759014  0.62595561  1
  N  N4459  1  0.57029602  0.59759014  0.87595561  1
  N  N4460  1  0.57029602  0.84759015  0.12595561  1
  N  N4461  1  0.57029602  0.84759015  0.37595561  1
  N  N4462  1  0.57029602  0.84759015  0.62595561  1
  N  N4463  1  0.57029602  0.84759015  0.87595561  1
  N  N4464  1  0.82029602  0.09759015  0.12595561  1
  N  N4465  1  0.82029602  0.09759015  0.37595561  1
  N  N4466  1  0.82029602  0.09759015  0.62595561  1
  N  N4467  1  0.82029602  0.09759015  0.87595561  1
  N  N4468  1  0.82029602  0.34759015  0.12595561  1
  N  N4469  1  0.82029602  0.34759015  0.37595561  1
  N  N4470  1  0.82029602  0.34759015  0.62595561  1
  N  N4471  1  0.82029602  0.34759015  0.87595561  1
  N  N4472  1  0.82029602  0.59759014  0.12595561  1
  N  N4473  1  0.82029602  0.59759014  0.37595561  1
  N  N4474  1  0.82029602  0.59759014  0.62595561  1
  N  N4475  1  0.82029602  0.59759014  0.87595561  1
  N  N4476  1  0.82029602  0.84759015  0.12595561  1
  N  N4477  1  0.82029602  0.84759015  0.37595561  1
  N  N4478  1  0.82029602  0.84759015  0.62595561  1
  N  N4479  1  0.82029602  0.84759015  0.87595561  1
  N  N4480  1  0.05470397  0.15240986  0.00095561  1
  N  N4481  1  0.05470397  0.15240986  0.25095561  1
  N  N4482  1  0.05470397  0.15240986  0.50095561  1
  N  N4483  1  0.05470397  0.15240986  0.75095561  1
  N  N4484  1  0.05470397  0.40240986  0.00095561  1
  N  N4485  1  0.05470397  0.40240986  0.25095561  1
  N  N4486  1  0.05470397  0.40240986  0.50095561  1
  N  N4487  1  0.05470397  0.40240986  0.75095561  1
  N  N4488  1  0.05470397  0.65240986  0.00095561  1
  N  N4489  1  0.05470397  0.65240986  0.25095561  1
  N  N4490  1  0.05470397  0.65240986  0.50095561  1
  N  N4491  1  0.05470397  0.65240986  0.75095561  1
  N  N4492  1  0.05470397  0.90240986  0.00095561  1
  N  N4493  1  0.05470397  0.90240986  0.25095561  1
  N  N4494  1  0.05470397  0.90240986  0.50095561  1
  N  N4495  1  0.05470397  0.90240986  0.75095561  1
  N  N4496  1  0.30470397  0.15240986  0.00095561  1
  N  N4497  1  0.30470397  0.15240986  0.25095561  1
  N  N4498  1  0.30470397  0.15240986  0.50095561  1
  N  N4499  1  0.30470397  0.15240986  0.75095561  1
  N  N4500  1  0.30470397  0.40240986  0.00095561  1
  N  N4501  1  0.30470397  0.40240986  0.25095561  1
  N  N4502  1  0.30470397  0.40240986  0.50095561  1
  N  N4503  1  0.30470397  0.40240986  0.75095561  1
  N  N4504  1  0.30470397  0.65240986  0.00095561  1
  N  N4505  1  0.30470397  0.65240986  0.25095561  1
  N  N4506  1  0.30470397  0.65240986  0.50095561  1
  N  N4507  1  0.30470397  0.65240986  0.75095561  1
  N  N4508  1  0.30470397  0.90240986  0.00095561  1
  N  N4509  1  0.30470397  0.90240986  0.25095561  1
  N  N4510  1  0.30470397  0.90240986  0.50095561  1
  N  N4511  1  0.30470397  0.90240986  0.75095561  1
  N  N4512  1  0.55470397  0.15240986  0.00095561  1
  N  N4513  1  0.55470397  0.15240986  0.25095561  1
  N  N4514  1  0.55470397  0.15240986  0.50095561  1
  N  N4515  1  0.55470397  0.15240986  0.75095561  1
  N  N4516  1  0.55470397  0.40240986  0.00095561  1
  N  N4517  1  0.55470397  0.40240986  0.25095561  1
  N  N4518  1  0.55470397  0.40240986  0.50095561  1
  N  N4519  1  0.55470397  0.40240986  0.75095561  1
  N  N4520  1  0.55470397  0.65240986  0.00095561  1
  N  N4521  1  0.55470397  0.65240986  0.25095561  1
  N  N4522  1  0.55470397  0.65240986  0.50095561  1
  N  N4523  1  0.55470397  0.65240986  0.75095561  1
  N  N4524  1  0.55470397  0.90240986  0.00095561  1
  N  N4525  1  0.55470397  0.90240986  0.25095561  1
  N  N4526  1  0.55470397  0.90240986  0.50095561  1
  N  N4527  1  0.55470397  0.90240986  0.75095561  1
  N  N4528  1  0.80470397  0.15240986  0.00095561  1
  N  N4529  1  0.80470397  0.15240986  0.25095561  1
  N  N4530  1  0.80470397  0.15240986  0.50095561  1
  N  N4531  1  0.80470397  0.15240986  0.75095561  1
  N  N4532  1  0.80470397  0.40240986  0.00095561  1
  N  N4533  1  0.80470397  0.40240986  0.25095561  1
  N  N4534  1  0.80470397  0.40240986  0.50095561  1
  N  N4535  1  0.80470397  0.40240986  0.75095561  1
  N  N4536  1  0.80470397  0.65240986  0.00095561  1
  N  N4537  1  0.80470397  0.65240986  0.25095561  1
  N  N4538  1  0.80470397  0.65240986  0.50095561  1
  N  N4539  1  0.80470397  0.65240986  0.75095561  1
  N  N4540  1  0.80470397  0.90240986  0.00095561  1
  N  N4541  1  0.80470397  0.90240986  0.25095561  1
  N  N4542  1  0.80470397  0.90240986  0.50095561  1
  N  N4543  1  0.80470397  0.90240986  0.75095561  1
  N  N4544  1  0.17970397  0.22259014  0.24904439  1
  N  N4545  1  0.17970397  0.22259014  0.49904439  1
  N  N4546  1  0.17970397  0.22259014  0.74904439  1
  N  N4547  1  0.17970397  0.22259014  0.99904439  1
  N  N4548  1  0.17970397  0.47259015  0.24904439  1
  N  N4549  1  0.17970397  0.47259015  0.49904439  1
  N  N4550  1  0.17970397  0.47259015  0.74904439  1
  N  N4551  1  0.17970397  0.47259015  0.99904439  1
  N  N4552  1  0.17970397  0.72259014  0.24904439  1
  N  N4553  1  0.17970397  0.72259014  0.49904439  1
  N  N4554  1  0.17970397  0.72259014  0.74904439  1
  N  N4555  1  0.17970397  0.72259014  0.99904439  1
  N  N4556  1  0.17970397  0.97259014  0.24904439  1
  N  N4557  1  0.17970397  0.97259014  0.49904439  1
  N  N4558  1  0.17970397  0.97259014  0.74904439  1
  N  N4559  1  0.17970397  0.97259014  0.99904439  1
  N  N4560  1  0.42970397  0.22259014  0.24904439  1
  N  N4561  1  0.42970397  0.22259014  0.49904439  1
  N  N4562  1  0.42970397  0.22259014  0.74904439  1
  N  N4563  1  0.42970397  0.22259014  0.99904439  1
  N  N4564  1  0.42970397  0.47259015  0.24904439  1
  N  N4565  1  0.42970397  0.47259015  0.49904439  1
  N  N4566  1  0.42970397  0.47259015  0.74904439  1
  N  N4567  1  0.42970397  0.47259015  0.99904439  1
  N  N4568  1  0.42970397  0.72259014  0.24904439  1
  N  N4569  1  0.42970397  0.72259014  0.49904439  1
  N  N4570  1  0.42970397  0.72259014  0.74904439  1
  N  N4571  1  0.42970397  0.72259014  0.99904439  1
  N  N4572  1  0.42970397  0.97259014  0.24904439  1
  N  N4573  1  0.42970397  0.97259014  0.49904439  1
  N  N4574  1  0.42970397  0.97259014  0.74904439  1
  N  N4575  1  0.42970397  0.97259014  0.99904439  1
  N  N4576  1  0.67970398  0.22259014  0.24904439  1
  N  N4577  1  0.67970398  0.22259014  0.49904439  1
  N  N4578  1  0.67970398  0.22259014  0.74904439  1
  N  N4579  1  0.67970398  0.22259014  0.99904439  1
  N  N4580  1  0.67970398  0.47259015  0.24904439  1
  N  N4581  1  0.67970398  0.47259015  0.49904439  1
  N  N4582  1  0.67970398  0.47259015  0.74904439  1
  N  N4583  1  0.67970398  0.47259015  0.99904439  1
  N  N4584  1  0.67970398  0.72259014  0.24904439  1
  N  N4585  1  0.67970398  0.72259014  0.49904439  1
  N  N4586  1  0.67970398  0.72259014  0.74904439  1
  N  N4587  1  0.67970398  0.72259014  0.99904439  1
  N  N4588  1  0.67970398  0.97259014  0.24904439  1
  N  N4589  1  0.67970398  0.97259014  0.49904439  1
  N  N4590  1  0.67970398  0.97259014  0.74904439  1
  N  N4591  1  0.67970398  0.97259014  0.99904439  1
  N  N4592  1  0.92970398  0.22259014  0.24904439  1
  N  N4593  1  0.92970398  0.22259014  0.49904439  1
  N  N4594  1  0.92970398  0.22259014  0.74904439  1
  N  N4595  1  0.92970398  0.22259014  0.99904439  1
  N  N4596  1  0.92970398  0.47259015  0.24904439  1
  N  N4597  1  0.92970398  0.47259015  0.49904439  1
  N  N4598  1  0.92970398  0.47259015  0.74904439  1
  N  N4599  1  0.92970398  0.47259015  0.99904439  1
  N  N4600  1  0.92970398  0.72259014  0.24904439  1
  N  N4601  1  0.92970398  0.72259014  0.49904439  1
  N  N4602  1  0.92970398  0.72259014  0.74904439  1
  N  N4603  1  0.92970398  0.72259014  0.99904439  1
  N  N4604  1  0.92970398  0.97259014  0.24904439  1
  N  N4605  1  0.92970398  0.97259014  0.49904439  1
  N  N4606  1  0.92970398  0.97259014  0.74904439  1
  N  N4607  1  0.92970398  0.97259014  0.99904439  1
  N  N4608  1  0.12595561  0.05470397  0.22259014  1
  N  N4609  1  0.12595561  0.05470397  0.47259015  1
  N  N4610  1  0.12595561  0.05470397  0.72259014  1
  N  N4611  1  0.12595561  0.05470397  0.97259014  1
  N  N4612  1  0.12595561  0.30470397  0.22259014  1
  N  N4613  1  0.12595561  0.30470397  0.47259015  1
  N  N4614  1  0.12595561  0.30470397  0.72259014  1
  N  N4615  1  0.12595561  0.30470397  0.97259014  1
  N  N4616  1  0.12595561  0.55470397  0.22259014  1
  N  N4617  1  0.12595561  0.55470397  0.47259015  1
  N  N4618  1  0.12595561  0.55470397  0.72259014  1
  N  N4619  1  0.12595561  0.55470397  0.97259014  1
  N  N4620  1  0.12595561  0.80470397  0.22259014  1
  N  N4621  1  0.12595561  0.80470397  0.47259015  1
  N  N4622  1  0.12595561  0.80470397  0.72259014  1
  N  N4623  1  0.12595561  0.80470397  0.97259014  1
  N  N4624  1  0.37595561  0.05470397  0.22259014  1
  N  N4625  1  0.37595561  0.05470397  0.47259015  1
  N  N4626  1  0.37595561  0.05470397  0.72259014  1
  N  N4627  1  0.37595561  0.05470397  0.97259014  1
  N  N4628  1  0.37595561  0.30470397  0.22259014  1
  N  N4629  1  0.37595561  0.30470397  0.47259015  1
  N  N4630  1  0.37595561  0.30470397  0.72259014  1
  N  N4631  1  0.37595561  0.30470397  0.97259014  1
  N  N4632  1  0.37595561  0.55470397  0.22259014  1
  N  N4633  1  0.37595561  0.55470397  0.47259015  1
  N  N4634  1  0.37595561  0.55470397  0.72259014  1
  N  N4635  1  0.37595561  0.55470397  0.97259014  1
  N  N4636  1  0.37595561  0.80470397  0.22259014  1
  N  N4637  1  0.37595561  0.80470397  0.47259015  1
  N  N4638  1  0.37595561  0.80470397  0.72259014  1
  N  N4639  1  0.37595561  0.80470397  0.97259014  1
  N  N4640  1  0.62595561  0.05470397  0.22259014  1
  N  N4641  1  0.62595561  0.05470397  0.47259015  1
  N  N4642  1  0.62595561  0.05470397  0.72259014  1
  N  N4643  1  0.62595561  0.05470397  0.97259014  1
  N  N4644  1  0.62595561  0.30470397  0.22259014  1
  N  N4645  1  0.62595561  0.30470397  0.47259015  1
  N  N4646  1  0.62595561  0.30470397  0.72259014  1
  N  N4647  1  0.62595561  0.30470397  0.97259014  1
  N  N4648  1  0.62595561  0.55470397  0.22259014  1
  N  N4649  1  0.62595561  0.55470397  0.47259015  1
  N  N4650  1  0.62595561  0.55470397  0.72259014  1
  N  N4651  1  0.62595561  0.55470397  0.97259014  1
  N  N4652  1  0.62595561  0.80470397  0.22259014  1
  N  N4653  1  0.62595561  0.80470397  0.47259015  1
  N  N4654  1  0.62595561  0.80470397  0.72259014  1
  N  N4655  1  0.62595561  0.80470397  0.97259014  1
  N  N4656  1  0.87595561  0.05470397  0.22259014  1
  N  N4657  1  0.87595561  0.05470397  0.47259015  1
  N  N4658  1  0.87595561  0.05470397  0.72259014  1
  N  N4659  1  0.87595561  0.05470397  0.97259014  1
  N  N4660  1  0.87595561  0.30470397  0.22259014  1
  N  N4661  1  0.87595561  0.30470397  0.47259015  1
  N  N4662  1  0.87595561  0.30470397  0.72259014  1
  N  N4663  1  0.87595561  0.30470397  0.97259014  1
  N  N4664  1  0.87595561  0.55470397  0.22259014  1
  N  N4665  1  0.87595561  0.55470397  0.47259015  1
  N  N4666  1  0.87595561  0.55470397  0.72259014  1
  N  N4667  1  0.87595561  0.55470397  0.97259014  1
  N  N4668  1  0.87595561  0.80470397  0.22259014  1
  N  N4669  1  0.87595561  0.80470397  0.47259015  1
  N  N4670  1  0.87595561  0.80470397  0.72259014  1
  N  N4671  1  0.87595561  0.80470397  0.97259014  1
  N  N4672  1  0.12404439  0.17970397  0.15240986  1
  N  N4673  1  0.12404439  0.17970397  0.40240986  1
  N  N4674  1  0.12404439  0.17970397  0.65240986  1
  N  N4675  1  0.12404439  0.17970397  0.90240986  1
  N  N4676  1  0.12404439  0.42970397  0.15240986  1
  N  N4677  1  0.12404439  0.42970397  0.40240986  1
  N  N4678  1  0.12404439  0.42970397  0.65240986  1
  N  N4679  1  0.12404439  0.42970397  0.90240986  1
  N  N4680  1  0.12404439  0.67970398  0.15240986  1
  N  N4681  1  0.12404439  0.67970398  0.40240986  1
  N  N4682  1  0.12404439  0.67970398  0.65240986  1
  N  N4683  1  0.12404439  0.67970398  0.90240986  1
  N  N4684  1  0.12404439  0.92970398  0.15240986  1
  N  N4685  1  0.12404439  0.92970398  0.40240986  1
  N  N4686  1  0.12404439  0.92970398  0.65240986  1
  N  N4687  1  0.12404439  0.92970398  0.90240986  1
  N  N4688  1  0.37404439  0.17970397  0.15240986  1
  N  N4689  1  0.37404439  0.17970397  0.40240986  1
  N  N4690  1  0.37404439  0.17970397  0.65240986  1
  N  N4691  1  0.37404439  0.17970397  0.90240986  1
  N  N4692  1  0.37404439  0.42970397  0.15240986  1
  N  N4693  1  0.37404439  0.42970397  0.40240986  1
  N  N4694  1  0.37404439  0.42970397  0.65240986  1
  N  N4695  1  0.37404439  0.42970397  0.90240986  1
  N  N4696  1  0.37404439  0.67970398  0.15240986  1
  N  N4697  1  0.37404439  0.67970398  0.40240986  1
  N  N4698  1  0.37404439  0.67970398  0.65240986  1
  N  N4699  1  0.37404439  0.67970398  0.90240986  1
  N  N4700  1  0.37404439  0.92970398  0.15240986  1
  N  N4701  1  0.37404439  0.92970398  0.40240986  1
  N  N4702  1  0.37404439  0.92970398  0.65240986  1
  N  N4703  1  0.37404439  0.92970398  0.90240986  1
  N  N4704  1  0.62404439  0.17970397  0.15240986  1
  N  N4705  1  0.62404439  0.17970397  0.40240986  1
  N  N4706  1  0.62404439  0.17970397  0.65240986  1
  N  N4707  1  0.62404439  0.17970397  0.90240986  1
  N  N4708  1  0.62404439  0.42970397  0.15240986  1
  N  N4709  1  0.62404439  0.42970397  0.40240986  1
  N  N4710  1  0.62404439  0.42970397  0.65240986  1
  N  N4711  1  0.62404439  0.42970397  0.90240986  1
  N  N4712  1  0.62404439  0.67970398  0.15240986  1
  N  N4713  1  0.62404439  0.67970398  0.40240986  1
  N  N4714  1  0.62404439  0.67970398  0.65240986  1
  N  N4715  1  0.62404439  0.67970398  0.90240986  1
  N  N4716  1  0.62404439  0.92970398  0.15240986  1
  N  N4717  1  0.62404439  0.92970398  0.40240986  1
  N  N4718  1  0.62404439  0.92970398  0.65240986  1
  N  N4719  1  0.62404439  0.92970398  0.90240986  1
  N  N4720  1  0.87404439  0.17970397  0.15240986  1
  N  N4721  1  0.87404439  0.17970397  0.40240986  1
  N  N4722  1  0.87404439  0.17970397  0.65240986  1
  N  N4723  1  0.87404439  0.17970397  0.90240986  1
  N  N4724  1  0.87404439  0.42970397  0.15240986  1
  N  N4725  1  0.87404439  0.42970397  0.40240986  1
  N  N4726  1  0.87404439  0.42970397  0.65240986  1
  N  N4727  1  0.87404439  0.42970397  0.90240986  1
  N  N4728  1  0.87404439  0.67970398  0.15240986  1
  N  N4729  1  0.87404439  0.67970398  0.40240986  1
  N  N4730  1  0.87404439  0.67970398  0.65240986  1
  N  N4731  1  0.87404439  0.67970398  0.90240986  1
  N  N4732  1  0.87404439  0.92970398  0.15240986  1
  N  N4733  1  0.87404439  0.92970398  0.40240986  1
  N  N4734  1  0.87404439  0.92970398  0.65240986  1
  N  N4735  1  0.87404439  0.92970398  0.90240986  1
  N  N4736  1  0.24904439  0.19529602  0.09759015  1
  N  N4737  1  0.24904439  0.19529602  0.34759015  1
  N  N4738  1  0.24904439  0.19529602  0.59759014  1
  N  N4739  1  0.24904439  0.19529602  0.84759015  1
  N  N4740  1  0.24904439  0.44529602  0.09759015  1
  N  N4741  1  0.24904439  0.44529602  0.34759015  1
  N  N4742  1  0.24904439  0.44529602  0.59759014  1
  N  N4743  1  0.24904439  0.44529602  0.84759015  1
  N  N4744  1  0.24904439  0.69529602  0.09759015  1
  N  N4745  1  0.24904439  0.69529602  0.34759015  1
  N  N4746  1  0.24904439  0.69529602  0.59759014  1
  N  N4747  1  0.24904439  0.69529602  0.84759015  1
  N  N4748  1  0.24904439  0.94529602  0.09759015  1
  N  N4749  1  0.24904439  0.94529602  0.34759015  1
  N  N4750  1  0.24904439  0.94529602  0.59759014  1
  N  N4751  1  0.24904439  0.94529602  0.84759015  1
  N  N4752  1  0.49904439  0.19529602  0.09759015  1
  N  N4753  1  0.49904439  0.19529602  0.34759015  1
  N  N4754  1  0.49904439  0.19529602  0.59759014  1
  N  N4755  1  0.49904439  0.19529602  0.84759015  1
  N  N4756  1  0.49904439  0.44529602  0.09759015  1
  N  N4757  1  0.49904439  0.44529602  0.34759015  1
  N  N4758  1  0.49904439  0.44529602  0.59759014  1
  N  N4759  1  0.49904439  0.44529602  0.84759015  1
  N  N4760  1  0.49904439  0.69529602  0.09759015  1
  N  N4761  1  0.49904439  0.69529602  0.34759015  1
  N  N4762  1  0.49904439  0.69529602  0.59759014  1
  N  N4763  1  0.49904439  0.69529602  0.84759015  1
  N  N4764  1  0.49904439  0.94529602  0.09759015  1
  N  N4765  1  0.49904439  0.94529602  0.34759015  1
  N  N4766  1  0.49904439  0.94529602  0.59759014  1
  N  N4767  1  0.49904439  0.94529602  0.84759015  1
  N  N4768  1  0.74904439  0.19529602  0.09759015  1
  N  N4769  1  0.74904439  0.19529602  0.34759015  1
  N  N4770  1  0.74904439  0.19529602  0.59759014  1
  N  N4771  1  0.74904439  0.19529602  0.84759015  1
  N  N4772  1  0.74904439  0.44529602  0.09759015  1
  N  N4773  1  0.74904439  0.44529602  0.34759015  1
  N  N4774  1  0.74904439  0.44529602  0.59759014  1
  N  N4775  1  0.74904439  0.44529602  0.84759015  1
  N  N4776  1  0.74904439  0.69529602  0.09759015  1
  N  N4777  1  0.74904439  0.69529602  0.34759015  1
  N  N4778  1  0.74904439  0.69529602  0.59759014  1
  N  N4779  1  0.74904439  0.69529602  0.84759015  1
  N  N4780  1  0.74904439  0.94529602  0.09759015  1
  N  N4781  1  0.74904439  0.94529602  0.34759015  1
  N  N4782  1  0.74904439  0.94529602  0.59759014  1
  N  N4783  1  0.74904439  0.94529602  0.84759015  1
  N  N4784  1  0.99904439  0.19529602  0.09759015  1
  N  N4785  1  0.99904439  0.19529602  0.34759015  1
  N  N4786  1  0.99904439  0.19529602  0.59759014  1
  N  N4787  1  0.99904439  0.19529602  0.84759015  1
  N  N4788  1  0.99904439  0.44529602  0.09759015  1
  N  N4789  1  0.99904439  0.44529602  0.34759015  1
  N  N4790  1  0.99904439  0.44529602  0.59759014  1
  N  N4791  1  0.99904439  0.44529602  0.84759015  1
  N  N4792  1  0.99904439  0.69529602  0.09759015  1
  N  N4793  1  0.99904439  0.69529602  0.34759015  1
  N  N4794  1  0.99904439  0.69529602  0.59759014  1
  N  N4795  1  0.99904439  0.69529602  0.84759015  1
  N  N4796  1  0.99904439  0.94529602  0.09759015  1
  N  N4797  1  0.99904439  0.94529602  0.34759015  1
  N  N4798  1  0.99904439  0.94529602  0.59759014  1
  N  N4799  1  0.99904439  0.94529602  0.84759015  1
  N  N4800  1  0.00095561  0.07029602  0.02740986  1
  N  N4801  1  0.00095561  0.07029602  0.27740985  1
  N  N4802  1  0.00095561  0.07029602  0.52740986  1
  N  N4803  1  0.00095561  0.07029602  0.77740986  1
  N  N4804  1  0.00095561  0.32029602  0.02740986  1
  N  N4805  1  0.00095561  0.32029602  0.27740985  1
  N  N4806  1  0.00095561  0.32029602  0.52740986  1
  N  N4807  1  0.00095561  0.32029602  0.77740986  1
  N  N4808  1  0.00095561  0.57029602  0.02740986  1
  N  N4809  1  0.00095561  0.57029602  0.27740985  1
  N  N4810  1  0.00095561  0.57029602  0.52740986  1
  N  N4811  1  0.00095561  0.57029602  0.77740986  1
  N  N4812  1  0.00095561  0.82029602  0.02740986  1
  N  N4813  1  0.00095561  0.82029602  0.27740985  1
  N  N4814  1  0.00095561  0.82029602  0.52740986  1
  N  N4815  1  0.00095561  0.82029602  0.77740986  1
  N  N4816  1  0.25095561  0.07029602  0.02740986  1
  N  N4817  1  0.25095561  0.07029602  0.27740985  1
  N  N4818  1  0.25095561  0.07029602  0.52740986  1
  N  N4819  1  0.25095561  0.07029602  0.77740986  1
  N  N4820  1  0.25095561  0.32029602  0.02740986  1
  N  N4821  1  0.25095561  0.32029602  0.27740985  1
  N  N4822  1  0.25095561  0.32029602  0.52740986  1
  N  N4823  1  0.25095561  0.32029602  0.77740986  1
  N  N4824  1  0.25095561  0.57029602  0.02740986  1
  N  N4825  1  0.25095561  0.57029602  0.27740985  1
  N  N4826  1  0.25095561  0.57029602  0.52740986  1
  N  N4827  1  0.25095561  0.57029602  0.77740986  1
  N  N4828  1  0.25095561  0.82029602  0.02740986  1
  N  N4829  1  0.25095561  0.82029602  0.27740985  1
  N  N4830  1  0.25095561  0.82029602  0.52740986  1
  N  N4831  1  0.25095561  0.82029602  0.77740986  1
  N  N4832  1  0.50095561  0.07029602  0.02740986  1
  N  N4833  1  0.50095561  0.07029602  0.27740985  1
  N  N4834  1  0.50095561  0.07029602  0.52740986  1
  N  N4835  1  0.50095561  0.07029602  0.77740986  1
  N  N4836  1  0.50095561  0.32029602  0.02740986  1
  N  N4837  1  0.50095561  0.32029602  0.27740985  1
  N  N4838  1  0.50095561  0.32029602  0.52740986  1
  N  N4839  1  0.50095561  0.32029602  0.77740986  1
  N  N4840  1  0.50095561  0.57029602  0.02740986  1
  N  N4841  1  0.50095561  0.57029602  0.27740985  1
  N  N4842  1  0.50095561  0.57029602  0.52740986  1
  N  N4843  1  0.50095561  0.57029602  0.77740986  1
  N  N4844  1  0.50095561  0.82029602  0.02740986  1
  N  N4845  1  0.50095561  0.82029602  0.27740985  1
  N  N4846  1  0.50095561  0.82029602  0.52740986  1
  N  N4847  1  0.50095561  0.82029602  0.77740986  1
  N  N4848  1  0.75095561  0.07029602  0.02740986  1
  N  N4849  1  0.75095561  0.07029602  0.27740985  1
  N  N4850  1  0.75095561  0.07029602  0.52740986  1
  N  N4851  1  0.75095561  0.07029602  0.77740986  1
  N  N4852  1  0.75095561  0.32029602  0.02740986  1
  N  N4853  1  0.75095561  0.32029602  0.27740985  1
  N  N4854  1  0.75095561  0.32029602  0.52740986  1
  N  N4855  1  0.75095561  0.32029602  0.77740986  1
  N  N4856  1  0.75095561  0.57029602  0.02740986  1
  N  N4857  1  0.75095561  0.57029602  0.27740985  1
  N  N4858  1  0.75095561  0.57029602  0.52740986  1
  N  N4859  1  0.75095561  0.57029602  0.77740986  1
  N  N4860  1  0.75095561  0.82029602  0.02740986  1
  N  N4861  1  0.75095561  0.82029602  0.27740985  1
  N  N4862  1  0.75095561  0.82029602  0.52740986  1
  N  N4863  1  0.75095561  0.82029602  0.77740986  1
  N  N4864  1  0.22259014  0.12595561  0.05470397  1
  N  N4865  1  0.22259014  0.12595561  0.30470397  1
  N  N4866  1  0.22259014  0.12595561  0.55470397  1
  N  N4867  1  0.22259014  0.12595561  0.80470397  1
  N  N4868  1  0.22259014  0.37595561  0.05470397  1
  N  N4869  1  0.22259014  0.37595561  0.30470397  1
  N  N4870  1  0.22259014  0.37595561  0.55470397  1
  N  N4871  1  0.22259014  0.37595561  0.80470397  1
  N  N4872  1  0.22259014  0.62595561  0.05470397  1
  N  N4873  1  0.22259014  0.62595561  0.30470397  1
  N  N4874  1  0.22259014  0.62595561  0.55470397  1
  N  N4875  1  0.22259014  0.62595561  0.80470397  1
  N  N4876  1  0.22259014  0.87595561  0.05470397  1
  N  N4877  1  0.22259014  0.87595561  0.30470397  1
  N  N4878  1  0.22259014  0.87595561  0.55470397  1
  N  N4879  1  0.22259014  0.87595561  0.80470397  1
  N  N4880  1  0.47259015  0.12595561  0.05470397  1
  N  N4881  1  0.47259015  0.12595561  0.30470397  1
  N  N4882  1  0.47259015  0.12595561  0.55470397  1
  N  N4883  1  0.47259015  0.12595561  0.80470397  1
  N  N4884  1  0.47259015  0.37595561  0.05470397  1
  N  N4885  1  0.47259015  0.37595561  0.30470397  1
  N  N4886  1  0.47259015  0.37595561  0.55470397  1
  N  N4887  1  0.47259015  0.37595561  0.80470397  1
  N  N4888  1  0.47259015  0.62595561  0.05470397  1
  N  N4889  1  0.47259015  0.62595561  0.30470397  1
  N  N4890  1  0.47259015  0.62595561  0.55470397  1
  N  N4891  1  0.47259015  0.62595561  0.80470397  1
  N  N4892  1  0.47259015  0.87595561  0.05470397  1
  N  N4893  1  0.47259015  0.87595561  0.30470397  1
  N  N4894  1  0.47259015  0.87595561  0.55470397  1
  N  N4895  1  0.47259015  0.87595561  0.80470397  1
  N  N4896  1  0.72259014  0.12595561  0.05470397  1
  N  N4897  1  0.72259014  0.12595561  0.30470397  1
  N  N4898  1  0.72259014  0.12595561  0.55470397  1
  N  N4899  1  0.72259014  0.12595561  0.80470397  1
  N  N4900  1  0.72259014  0.37595561  0.05470397  1
  N  N4901  1  0.72259014  0.37595561  0.30470397  1
  N  N4902  1  0.72259014  0.37595561  0.55470397  1
  N  N4903  1  0.72259014  0.37595561  0.80470397  1
  N  N4904  1  0.72259014  0.62595561  0.05470397  1
  N  N4905  1  0.72259014  0.62595561  0.30470397  1
  N  N4906  1  0.72259014  0.62595561  0.55470397  1
  N  N4907  1  0.72259014  0.62595561  0.80470397  1
  N  N4908  1  0.72259014  0.87595561  0.05470397  1
  N  N4909  1  0.72259014  0.87595561  0.30470397  1
  N  N4910  1  0.72259014  0.87595561  0.55470397  1
  N  N4911  1  0.72259014  0.87595561  0.80470397  1
  N  N4912  1  0.97259014  0.12595561  0.05470397  1
  N  N4913  1  0.97259014  0.12595561  0.30470397  1
  N  N4914  1  0.97259014  0.12595561  0.55470397  1
  N  N4915  1  0.97259014  0.12595561  0.80470397  1
  N  N4916  1  0.97259014  0.37595561  0.05470397  1
  N  N4917  1  0.97259014  0.37595561  0.30470397  1
  N  N4918  1  0.97259014  0.37595561  0.55470397  1
  N  N4919  1  0.97259014  0.37595561  0.80470397  1
  N  N4920  1  0.97259014  0.62595561  0.05470397  1
  N  N4921  1  0.97259014  0.62595561  0.30470397  1
  N  N4922  1  0.97259014  0.62595561  0.55470397  1
  N  N4923  1  0.97259014  0.62595561  0.80470397  1
  N  N4924  1  0.97259014  0.87595561  0.05470397  1
  N  N4925  1  0.97259014  0.87595561  0.30470397  1
  N  N4926  1  0.97259014  0.87595561  0.55470397  1
  N  N4927  1  0.97259014  0.87595561  0.80470397  1
  N  N4928  1  0.15240986  0.12404439  0.17970397  1
  N  N4929  1  0.15240986  0.12404439  0.42970397  1
  N  N4930  1  0.15240986  0.12404439  0.67970398  1
  N  N4931  1  0.15240986  0.12404439  0.92970398  1
  N  N4932  1  0.15240986  0.37404439  0.17970397  1
  N  N4933  1  0.15240986  0.37404439  0.42970397  1
  N  N4934  1  0.15240986  0.37404439  0.67970398  1
  N  N4935  1  0.15240986  0.37404439  0.92970398  1
  N  N4936  1  0.15240986  0.62404439  0.17970397  1
  N  N4937  1  0.15240986  0.62404439  0.42970397  1
  N  N4938  1  0.15240986  0.62404439  0.67970398  1
  N  N4939  1  0.15240986  0.62404439  0.92970398  1
  N  N4940  1  0.15240986  0.87404439  0.17970397  1
  N  N4941  1  0.15240986  0.87404439  0.42970397  1
  N  N4942  1  0.15240986  0.87404439  0.67970398  1
  N  N4943  1  0.15240986  0.87404439  0.92970398  1
  N  N4944  1  0.40240986  0.12404439  0.17970397  1
  N  N4945  1  0.40240986  0.12404439  0.42970397  1
  N  N4946  1  0.40240986  0.12404439  0.67970398  1
  N  N4947  1  0.40240986  0.12404439  0.92970398  1
  N  N4948  1  0.40240986  0.37404439  0.17970397  1
  N  N4949  1  0.40240986  0.37404439  0.42970397  1
  N  N4950  1  0.40240986  0.37404439  0.67970398  1
  N  N4951  1  0.40240986  0.37404439  0.92970398  1
  N  N4952  1  0.40240986  0.62404439  0.17970397  1
  N  N4953  1  0.40240986  0.62404439  0.42970397  1
  N  N4954  1  0.40240986  0.62404439  0.67970398  1
  N  N4955  1  0.40240986  0.62404439  0.92970398  1
  N  N4956  1  0.40240986  0.87404439  0.17970397  1
  N  N4957  1  0.40240986  0.87404439  0.42970397  1
  N  N4958  1  0.40240986  0.87404439  0.67970398  1
  N  N4959  1  0.40240986  0.87404439  0.92970398  1
  N  N4960  1  0.65240986  0.12404439  0.17970397  1
  N  N4961  1  0.65240986  0.12404439  0.42970397  1
  N  N4962  1  0.65240986  0.12404439  0.67970398  1
  N  N4963  1  0.65240986  0.12404439  0.92970398  1
  N  N4964  1  0.65240986  0.37404439  0.17970397  1
  N  N4965  1  0.65240986  0.37404439  0.42970397  1
  N  N4966  1  0.65240986  0.37404439  0.67970398  1
  N  N4967  1  0.65240986  0.37404439  0.92970398  1
  N  N4968  1  0.65240986  0.62404439  0.17970397  1
  N  N4969  1  0.65240986  0.62404439  0.42970397  1
  N  N4970  1  0.65240986  0.62404439  0.67970398  1
  N  N4971  1  0.65240986  0.62404439  0.92970398  1
  N  N4972  1  0.65240986  0.87404439  0.17970397  1
  N  N4973  1  0.65240986  0.87404439  0.42970397  1
  N  N4974  1  0.65240986  0.87404439  0.67970398  1
  N  N4975  1  0.65240986  0.87404439  0.92970398  1
  N  N4976  1  0.90240986  0.12404439  0.17970397  1
  N  N4977  1  0.90240986  0.12404439  0.42970397  1
  N  N4978  1  0.90240986  0.12404439  0.67970398  1
  N  N4979  1  0.90240986  0.12404439  0.92970398  1
  N  N4980  1  0.90240986  0.37404439  0.17970397  1
  N  N4981  1  0.90240986  0.37404439  0.42970397  1
  N  N4982  1  0.90240986  0.37404439  0.67970398  1
  N  N4983  1  0.90240986  0.37404439  0.92970398  1
  N  N4984  1  0.90240986  0.62404439  0.17970397  1
  N  N4985  1  0.90240986  0.62404439  0.42970397  1
  N  N4986  1  0.90240986  0.62404439  0.67970398  1
  N  N4987  1  0.90240986  0.62404439  0.92970398  1
  N  N4988  1  0.90240986  0.87404439  0.17970397  1
  N  N4989  1  0.90240986  0.87404439  0.42970397  1
  N  N4990  1  0.90240986  0.87404439  0.67970398  1
  N  N4991  1  0.90240986  0.87404439  0.92970398  1
  N  N4992  1  0.09759015  0.24904439  0.19529602  1
  N  N4993  1  0.09759015  0.24904439  0.44529602  1
  N  N4994  1  0.09759015  0.24904439  0.69529602  1
  N  N4995  1  0.09759015  0.24904439  0.94529602  1
  N  N4996  1  0.09759015  0.49904439  0.19529602  1
  N  N4997  1  0.09759015  0.49904439  0.44529602  1
  N  N4998  1  0.09759015  0.49904439  0.69529602  1
  N  N4999  1  0.09759015  0.49904439  0.94529602  1
  N  N5000  1  0.09759015  0.74904439  0.19529602  1
  N  N5001  1  0.09759015  0.74904439  0.44529602  1
  N  N5002  1  0.09759015  0.74904439  0.69529602  1
  N  N5003  1  0.09759015  0.74904439  0.94529602  1
  N  N5004  1  0.09759015  0.99904439  0.19529602  1
  N  N5005  1  0.09759015  0.99904439  0.44529602  1
  N  N5006  1  0.09759015  0.99904439  0.69529602  1
  N  N5007  1  0.09759015  0.99904439  0.94529602  1
  N  N5008  1  0.34759015  0.24904439  0.19529602  1
  N  N5009  1  0.34759015  0.24904439  0.44529602  1
  N  N5010  1  0.34759015  0.24904439  0.69529602  1
  N  N5011  1  0.34759015  0.24904439  0.94529602  1
  N  N5012  1  0.34759015  0.49904439  0.19529602  1
  N  N5013  1  0.34759015  0.49904439  0.44529602  1
  N  N5014  1  0.34759015  0.49904439  0.69529602  1
  N  N5015  1  0.34759015  0.49904439  0.94529602  1
  N  N5016  1  0.34759015  0.74904439  0.19529602  1
  N  N5017  1  0.34759015  0.74904439  0.44529602  1
  N  N5018  1  0.34759015  0.74904439  0.69529602  1
  N  N5019  1  0.34759015  0.74904439  0.94529602  1
  N  N5020  1  0.34759015  0.99904439  0.19529602  1
  N  N5021  1  0.34759015  0.99904439  0.44529602  1
  N  N5022  1  0.34759015  0.99904439  0.69529602  1
  N  N5023  1  0.34759015  0.99904439  0.94529602  1
  N  N5024  1  0.59759014  0.24904439  0.19529602  1
  N  N5025  1  0.59759014  0.24904439  0.44529602  1
  N  N5026  1  0.59759014  0.24904439  0.69529602  1
  N  N5027  1  0.59759014  0.24904439  0.94529602  1
  N  N5028  1  0.59759014  0.49904439  0.19529602  1
  N  N5029  1  0.59759014  0.49904439  0.44529602  1
  N  N5030  1  0.59759014  0.49904439  0.69529602  1
  N  N5031  1  0.59759014  0.49904439  0.94529602  1
  N  N5032  1  0.59759014  0.74904439  0.19529602  1
  N  N5033  1  0.59759014  0.74904439  0.44529602  1
  N  N5034  1  0.59759014  0.74904439  0.69529602  1
  N  N5035  1  0.59759014  0.74904439  0.94529602  1
  N  N5036  1  0.59759014  0.99904439  0.19529602  1
  N  N5037  1  0.59759014  0.99904439  0.44529602  1
  N  N5038  1  0.59759014  0.99904439  0.69529602  1
  N  N5039  1  0.59759014  0.99904439  0.94529602  1
  N  N5040  1  0.84759015  0.24904439  0.19529602  1
  N  N5041  1  0.84759015  0.24904439  0.44529602  1
  N  N5042  1  0.84759015  0.24904439  0.69529602  1
  N  N5043  1  0.84759015  0.24904439  0.94529602  1
  N  N5044  1  0.84759015  0.49904439  0.19529602  1
  N  N5045  1  0.84759015  0.49904439  0.44529602  1
  N  N5046  1  0.84759015  0.49904439  0.69529602  1
  N  N5047  1  0.84759015  0.49904439  0.94529602  1
  N  N5048  1  0.84759015  0.74904439  0.19529602  1
  N  N5049  1  0.84759015  0.74904439  0.44529602  1
  N  N5050  1  0.84759015  0.74904439  0.69529602  1
  N  N5051  1  0.84759015  0.74904439  0.94529602  1
  N  N5052  1  0.84759015  0.99904439  0.19529602  1
  N  N5053  1  0.84759015  0.99904439  0.44529602  1
  N  N5054  1  0.84759015  0.99904439  0.69529602  1
  N  N5055  1  0.84759015  0.99904439  0.94529602  1
  N  N5056  1  0.02740986  0.00095561  0.07029602  1
  N  N5057  1  0.02740986  0.00095561  0.32029602  1
  N  N5058  1  0.02740986  0.00095561  0.57029602  1
  N  N5059  1  0.02740986  0.00095561  0.82029602  1
  N  N5060  1  0.02740986  0.25095561  0.07029602  1
  N  N5061  1  0.02740986  0.25095561  0.32029602  1
  N  N5062  1  0.02740986  0.25095561  0.57029602  1
  N  N5063  1  0.02740986  0.25095561  0.82029602  1
  N  N5064  1  0.02740986  0.50095561  0.07029602  1
  N  N5065  1  0.02740986  0.50095561  0.32029602  1
  N  N5066  1  0.02740986  0.50095561  0.57029602  1
  N  N5067  1  0.02740986  0.50095561  0.82029602  1
  N  N5068  1  0.02740986  0.75095561  0.07029602  1
  N  N5069  1  0.02740986  0.75095561  0.32029602  1
  N  N5070  1  0.02740986  0.75095561  0.57029602  1
  N  N5071  1  0.02740986  0.75095561  0.82029602  1
  N  N5072  1  0.27740985  0.00095561  0.07029602  1
  N  N5073  1  0.27740985  0.00095561  0.32029602  1
  N  N5074  1  0.27740985  0.00095561  0.57029602  1
  N  N5075  1  0.27740985  0.00095561  0.82029602  1
  N  N5076  1  0.27740985  0.25095561  0.07029602  1
  N  N5077  1  0.27740985  0.25095561  0.32029602  1
  N  N5078  1  0.27740985  0.25095561  0.57029602  1
  N  N5079  1  0.27740985  0.25095561  0.82029602  1
  N  N5080  1  0.27740985  0.50095561  0.07029602  1
  N  N5081  1  0.27740985  0.50095561  0.32029602  1
  N  N5082  1  0.27740985  0.50095561  0.57029602  1
  N  N5083  1  0.27740985  0.50095561  0.82029602  1
  N  N5084  1  0.27740985  0.75095561  0.07029602  1
  N  N5085  1  0.27740985  0.75095561  0.32029602  1
  N  N5086  1  0.27740985  0.75095561  0.57029602  1
  N  N5087  1  0.27740985  0.75095561  0.82029602  1
  N  N5088  1  0.52740986  0.00095561  0.07029602  1
  N  N5089  1  0.52740986  0.00095561  0.32029602  1
  N  N5090  1  0.52740986  0.00095561  0.57029602  1
  N  N5091  1  0.52740986  0.00095561  0.82029602  1
  N  N5092  1  0.52740986  0.25095561  0.07029602  1
  N  N5093  1  0.52740986  0.25095561  0.32029602  1
  N  N5094  1  0.52740986  0.25095561  0.57029602  1
  N  N5095  1  0.52740986  0.25095561  0.82029602  1
  N  N5096  1  0.52740986  0.50095561  0.07029602  1
  N  N5097  1  0.52740986  0.50095561  0.32029602  1
  N  N5098  1  0.52740986  0.50095561  0.57029602  1
  N  N5099  1  0.52740986  0.50095561  0.82029602  1
  N  N5100  1  0.52740986  0.75095561  0.07029602  1
  N  N5101  1  0.52740986  0.75095561  0.32029602  1
  N  N5102  1  0.52740986  0.75095561  0.57029602  1
  N  N5103  1  0.52740986  0.75095561  0.82029602  1
  N  N5104  1  0.77740986  0.00095561  0.07029602  1
  N  N5105  1  0.77740986  0.00095561  0.32029602  1
  N  N5106  1  0.77740986  0.00095561  0.57029602  1
  N  N5107  1  0.77740986  0.00095561  0.82029602  1
  N  N5108  1  0.77740986  0.25095561  0.07029602  1
  N  N5109  1  0.77740986  0.25095561  0.32029602  1
  N  N5110  1  0.77740986  0.25095561  0.57029602  1
  N  N5111  1  0.77740986  0.25095561  0.82029602  1
  N  N5112  1  0.77740986  0.50095561  0.07029602  1
  N  N5113  1  0.77740986  0.50095561  0.32029602  1
  N  N5114  1  0.77740986  0.50095561  0.57029602  1
  N  N5115  1  0.77740986  0.50095561  0.82029602  1
  N  N5116  1  0.77740986  0.75095561  0.07029602  1
  N  N5117  1  0.77740986  0.75095561  0.32029602  1
  N  N5118  1  0.77740986  0.75095561  0.57029602  1
  N  N5119  1  0.77740986  0.75095561  0.82029602  1
  N  N5120  1  0.05470397  0.22259014  0.12595561  1
  N  N5121  1  0.05470397  0.22259014  0.37595561  1
  N  N5122  1  0.05470397  0.22259014  0.62595561  1
  N  N5123  1  0.05470397  0.22259014  0.87595561  1
  N  N5124  1  0.05470397  0.47259015  0.12595561  1
  N  N5125  1  0.05470397  0.47259015  0.37595561  1
  N  N5126  1  0.05470397  0.47259015  0.62595561  1
  N  N5127  1  0.05470397  0.47259015  0.87595561  1
  N  N5128  1  0.05470397  0.72259014  0.12595561  1
  N  N5129  1  0.05470397  0.72259014  0.37595561  1
  N  N5130  1  0.05470397  0.72259014  0.62595561  1
  N  N5131  1  0.05470397  0.72259014  0.87595561  1
  N  N5132  1  0.05470397  0.97259014  0.12595561  1
  N  N5133  1  0.05470397  0.97259014  0.37595561  1
  N  N5134  1  0.05470397  0.97259014  0.62595561  1
  N  N5135  1  0.05470397  0.97259014  0.87595561  1
  N  N5136  1  0.30470397  0.22259014  0.12595561  1
  N  N5137  1  0.30470397  0.22259014  0.37595561  1
  N  N5138  1  0.30470397  0.22259014  0.62595561  1
  N  N5139  1  0.30470397  0.22259014  0.87595561  1
  N  N5140  1  0.30470397  0.47259015  0.12595561  1
  N  N5141  1  0.30470397  0.47259015  0.37595561  1
  N  N5142  1  0.30470397  0.47259015  0.62595561  1
  N  N5143  1  0.30470397  0.47259015  0.87595561  1
  N  N5144  1  0.30470397  0.72259014  0.12595561  1
  N  N5145  1  0.30470397  0.72259014  0.37595561  1
  N  N5146  1  0.30470397  0.72259014  0.62595561  1
  N  N5147  1  0.30470397  0.72259014  0.87595561  1
  N  N5148  1  0.30470397  0.97259014  0.12595561  1
  N  N5149  1  0.30470397  0.97259014  0.37595561  1
  N  N5150  1  0.30470397  0.97259014  0.62595561  1
  N  N5151  1  0.30470397  0.97259014  0.87595561  1
  N  N5152  1  0.55470397  0.22259014  0.12595561  1
  N  N5153  1  0.55470397  0.22259014  0.37595561  1
  N  N5154  1  0.55470397  0.22259014  0.62595561  1
  N  N5155  1  0.55470397  0.22259014  0.87595561  1
  N  N5156  1  0.55470397  0.47259015  0.12595561  1
  N  N5157  1  0.55470397  0.47259015  0.37595561  1
  N  N5158  1  0.55470397  0.47259015  0.62595561  1
  N  N5159  1  0.55470397  0.47259015  0.87595561  1
  N  N5160  1  0.55470397  0.72259014  0.12595561  1
  N  N5161  1  0.55470397  0.72259014  0.37595561  1
  N  N5162  1  0.55470397  0.72259014  0.62595561  1
  N  N5163  1  0.55470397  0.72259014  0.87595561  1
  N  N5164  1  0.55470397  0.97259014  0.12595561  1
  N  N5165  1  0.55470397  0.97259014  0.37595561  1
  N  N5166  1  0.55470397  0.97259014  0.62595561  1
  N  N5167  1  0.55470397  0.97259014  0.87595561  1
  N  N5168  1  0.80470397  0.22259014  0.12595561  1
  N  N5169  1  0.80470397  0.22259014  0.37595561  1
  N  N5170  1  0.80470397  0.22259014  0.62595561  1
  N  N5171  1  0.80470397  0.22259014  0.87595561  1
  N  N5172  1  0.80470397  0.47259015  0.12595561  1
  N  N5173  1  0.80470397  0.47259015  0.37595561  1
  N  N5174  1  0.80470397  0.47259015  0.62595561  1
  N  N5175  1  0.80470397  0.47259015  0.87595561  1
  N  N5176  1  0.80470397  0.72259014  0.12595561  1
  N  N5177  1  0.80470397  0.72259014  0.37595561  1
  N  N5178  1  0.80470397  0.72259014  0.62595561  1
  N  N5179  1  0.80470397  0.72259014  0.87595561  1
  N  N5180  1  0.80470397  0.97259014  0.12595561  1
  N  N5181  1  0.80470397  0.97259014  0.37595561  1
  N  N5182  1  0.80470397  0.97259014  0.62595561  1
  N  N5183  1  0.80470397  0.97259014  0.87595561  1
  N  N5184  1  0.17970397  0.15240986  0.12404439  1
  N  N5185  1  0.17970397  0.15240986  0.37404439  1
  N  N5186  1  0.17970397  0.15240986  0.62404439  1
  N  N5187  1  0.17970397  0.15240986  0.87404439  1
  N  N5188  1  0.17970397  0.40240986  0.12404439  1
  N  N5189  1  0.17970397  0.40240986  0.37404439  1
  N  N5190  1  0.17970397  0.40240986  0.62404439  1
  N  N5191  1  0.17970397  0.40240986  0.87404439  1
  N  N5192  1  0.17970397  0.65240986  0.12404439  1
  N  N5193  1  0.17970397  0.65240986  0.37404439  1
  N  N5194  1  0.17970397  0.65240986  0.62404439  1
  N  N5195  1  0.17970397  0.65240986  0.87404439  1
  N  N5196  1  0.17970397  0.90240986  0.12404439  1
  N  N5197  1  0.17970397  0.90240986  0.37404439  1
  N  N5198  1  0.17970397  0.90240986  0.62404439  1
  N  N5199  1  0.17970397  0.90240986  0.87404439  1
  N  N5200  1  0.42970397  0.15240986  0.12404439  1
  N  N5201  1  0.42970397  0.15240986  0.37404439  1
  N  N5202  1  0.42970397  0.15240986  0.62404439  1
  N  N5203  1  0.42970397  0.15240986  0.87404439  1
  N  N5204  1  0.42970397  0.40240986  0.12404439  1
  N  N5205  1  0.42970397  0.40240986  0.37404439  1
  N  N5206  1  0.42970397  0.40240986  0.62404439  1
  N  N5207  1  0.42970397  0.40240986  0.87404439  1
  N  N5208  1  0.42970397  0.65240986  0.12404439  1
  N  N5209  1  0.42970397  0.65240986  0.37404439  1
  N  N5210  1  0.42970397  0.65240986  0.62404439  1
  N  N5211  1  0.42970397  0.65240986  0.87404439  1
  N  N5212  1  0.42970397  0.90240986  0.12404439  1
  N  N5213  1  0.42970397  0.90240986  0.37404439  1
  N  N5214  1  0.42970397  0.90240986  0.62404439  1
  N  N5215  1  0.42970397  0.90240986  0.87404439  1
  N  N5216  1  0.67970398  0.15240986  0.12404439  1
  N  N5217  1  0.67970398  0.15240986  0.37404439  1
  N  N5218  1  0.67970398  0.15240986  0.62404439  1
  N  N5219  1  0.67970398  0.15240986  0.87404439  1
  N  N5220  1  0.67970398  0.40240986  0.12404439  1
  N  N5221  1  0.67970398  0.40240986  0.37404439  1
  N  N5222  1  0.67970398  0.40240986  0.62404439  1
  N  N5223  1  0.67970398  0.40240986  0.87404439  1
  N  N5224  1  0.67970398  0.65240986  0.12404439  1
  N  N5225  1  0.67970398  0.65240986  0.37404439  1
  N  N5226  1  0.67970398  0.65240986  0.62404439  1
  N  N5227  1  0.67970398  0.65240986  0.87404439  1
  N  N5228  1  0.67970398  0.90240986  0.12404439  1
  N  N5229  1  0.67970398  0.90240986  0.37404439  1
  N  N5230  1  0.67970398  0.90240986  0.62404439  1
  N  N5231  1  0.67970398  0.90240986  0.87404439  1
  N  N5232  1  0.92970398  0.15240986  0.12404439  1
  N  N5233  1  0.92970398  0.15240986  0.37404439  1
  N  N5234  1  0.92970398  0.15240986  0.62404439  1
  N  N5235  1  0.92970398  0.15240986  0.87404439  1
  N  N5236  1  0.92970398  0.40240986  0.12404439  1
  N  N5237  1  0.92970398  0.40240986  0.37404439  1
  N  N5238  1  0.92970398  0.40240986  0.62404439  1
  N  N5239  1  0.92970398  0.40240986  0.87404439  1
  N  N5240  1  0.92970398  0.65240986  0.12404439  1
  N  N5241  1  0.92970398  0.65240986  0.37404439  1
  N  N5242  1  0.92970398  0.65240986  0.62404439  1
  N  N5243  1  0.92970398  0.65240986  0.87404439  1
  N  N5244  1  0.92970398  0.90240986  0.12404439  1
  N  N5245  1  0.92970398  0.90240986  0.37404439  1
  N  N5246  1  0.92970398  0.90240986  0.62404439  1
  N  N5247  1  0.92970398  0.90240986  0.87404439  1
  N  N5248  1  0.19529602  0.09759015  0.24904439  1
  N  N5249  1  0.19529602  0.09759015  0.49904439  1
  N  N5250  1  0.19529602  0.09759015  0.74904439  1
  N  N5251  1  0.19529602  0.09759015  0.99904439  1
  N  N5252  1  0.19529602  0.34759015  0.24904439  1
  N  N5253  1  0.19529602  0.34759015  0.49904439  1
  N  N5254  1  0.19529602  0.34759015  0.74904439  1
  N  N5255  1  0.19529602  0.34759015  0.99904439  1
  N  N5256  1  0.19529602  0.59759014  0.24904439  1
  N  N5257  1  0.19529602  0.59759014  0.49904439  1
  N  N5258  1  0.19529602  0.59759014  0.74904439  1
  N  N5259  1  0.19529602  0.59759014  0.99904439  1
  N  N5260  1  0.19529602  0.84759015  0.24904439  1
  N  N5261  1  0.19529602  0.84759015  0.49904439  1
  N  N5262  1  0.19529602  0.84759015  0.74904439  1
  N  N5263  1  0.19529602  0.84759015  0.99904439  1
  N  N5264  1  0.44529602  0.09759015  0.24904439  1
  N  N5265  1  0.44529602  0.09759015  0.49904439  1
  N  N5266  1  0.44529602  0.09759015  0.74904439  1
  N  N5267  1  0.44529602  0.09759015  0.99904439  1
  N  N5268  1  0.44529602  0.34759015  0.24904439  1
  N  N5269  1  0.44529602  0.34759015  0.49904439  1
  N  N5270  1  0.44529602  0.34759015  0.74904439  1
  N  N5271  1  0.44529602  0.34759015  0.99904439  1
  N  N5272  1  0.44529602  0.59759014  0.24904439  1
  N  N5273  1  0.44529602  0.59759014  0.49904439  1
  N  N5274  1  0.44529602  0.59759014  0.74904439  1
  N  N5275  1  0.44529602  0.59759014  0.99904439  1
  N  N5276  1  0.44529602  0.84759015  0.24904439  1
  N  N5277  1  0.44529602  0.84759015  0.49904439  1
  N  N5278  1  0.44529602  0.84759015  0.74904439  1
  N  N5279  1  0.44529602  0.84759015  0.99904439  1
  N  N5280  1  0.69529602  0.09759015  0.24904439  1
  N  N5281  1  0.69529602  0.09759015  0.49904439  1
  N  N5282  1  0.69529602  0.09759015  0.74904439  1
  N  N5283  1  0.69529602  0.09759015  0.99904439  1
  N  N5284  1  0.69529602  0.34759015  0.24904439  1
  N  N5285  1  0.69529602  0.34759015  0.49904439  1
  N  N5286  1  0.69529602  0.34759015  0.74904439  1
  N  N5287  1  0.69529602  0.34759015  0.99904439  1
  N  N5288  1  0.69529602  0.59759014  0.24904439  1
  N  N5289  1  0.69529602  0.59759014  0.49904439  1
  N  N5290  1  0.69529602  0.59759014  0.74904439  1
  N  N5291  1  0.69529602  0.59759014  0.99904439  1
  N  N5292  1  0.69529602  0.84759015  0.24904439  1
  N  N5293  1  0.69529602  0.84759015  0.49904439  1
  N  N5294  1  0.69529602  0.84759015  0.74904439  1
  N  N5295  1  0.69529602  0.84759015  0.99904439  1
  N  N5296  1  0.94529602  0.09759015  0.24904439  1
  N  N5297  1  0.94529602  0.09759015  0.49904439  1
  N  N5298  1  0.94529602  0.09759015  0.74904439  1
  N  N5299  1  0.94529602  0.09759015  0.99904439  1
  N  N5300  1  0.94529602  0.34759015  0.24904439  1
  N  N5301  1  0.94529602  0.34759015  0.49904439  1
  N  N5302  1  0.94529602  0.34759015  0.74904439  1
  N  N5303  1  0.94529602  0.34759015  0.99904439  1
  N  N5304  1  0.94529602  0.59759014  0.24904439  1
  N  N5305  1  0.94529602  0.59759014  0.49904439  1
  N  N5306  1  0.94529602  0.59759014  0.74904439  1
  N  N5307  1  0.94529602  0.59759014  0.99904439  1
  N  N5308  1  0.94529602  0.84759015  0.24904439  1
  N  N5309  1  0.94529602  0.84759015  0.49904439  1
  N  N5310  1  0.94529602  0.84759015  0.74904439  1
  N  N5311  1  0.94529602  0.84759015  0.99904439  1
  N  N5312  1  0.07029602  0.02740986  0.00095561  1
  N  N5313  1  0.07029602  0.02740986  0.25095561  1
  N  N5314  1  0.07029602  0.02740986  0.50095561  1
  N  N5315  1  0.07029602  0.02740986  0.75095561  1
  N  N5316  1  0.07029602  0.27740985  0.00095561  1
  N  N5317  1  0.07029602  0.27740985  0.25095561  1
  N  N5318  1  0.07029602  0.27740985  0.50095561  1
  N  N5319  1  0.07029602  0.27740985  0.75095561  1
  N  N5320  1  0.07029602  0.52740986  0.00095561  1
  N  N5321  1  0.07029602  0.52740986  0.25095561  1
  N  N5322  1  0.07029602  0.52740986  0.50095561  1
  N  N5323  1  0.07029602  0.52740986  0.75095561  1
  N  N5324  1  0.07029602  0.77740986  0.00095561  1
  N  N5325  1  0.07029602  0.77740986  0.25095561  1
  N  N5326  1  0.07029602  0.77740986  0.50095561  1
  N  N5327  1  0.07029602  0.77740986  0.75095561  1
  N  N5328  1  0.32029602  0.02740986  0.00095561  1
  N  N5329  1  0.32029602  0.02740986  0.25095561  1
  N  N5330  1  0.32029602  0.02740986  0.50095561  1
  N  N5331  1  0.32029602  0.02740986  0.75095561  1
  N  N5332  1  0.32029602  0.27740985  0.00095561  1
  N  N5333  1  0.32029602  0.27740985  0.25095561  1
  N  N5334  1  0.32029602  0.27740985  0.50095561  1
  N  N5335  1  0.32029602  0.27740985  0.75095561  1
  N  N5336  1  0.32029602  0.52740986  0.00095561  1
  N  N5337  1  0.32029602  0.52740986  0.25095561  1
  N  N5338  1  0.32029602  0.52740986  0.50095561  1
  N  N5339  1  0.32029602  0.52740986  0.75095561  1
  N  N5340  1  0.32029602  0.77740986  0.00095561  1
  N  N5341  1  0.32029602  0.77740986  0.25095561  1
  N  N5342  1  0.32029602  0.77740986  0.50095561  1
  N  N5343  1  0.32029602  0.77740986  0.75095561  1
  N  N5344  1  0.57029602  0.02740986  0.00095561  1
  N  N5345  1  0.57029602  0.02740986  0.25095561  1
  N  N5346  1  0.57029602  0.02740986  0.50095561  1
  N  N5347  1  0.57029602  0.02740986  0.75095561  1
  N  N5348  1  0.57029602  0.27740985  0.00095561  1
  N  N5349  1  0.57029602  0.27740985  0.25095561  1
  N  N5350  1  0.57029602  0.27740985  0.50095561  1
  N  N5351  1  0.57029602  0.27740985  0.75095561  1
  N  N5352  1  0.57029602  0.52740986  0.00095561  1
  N  N5353  1  0.57029602  0.52740986  0.25095561  1
  N  N5354  1  0.57029602  0.52740986  0.50095561  1
  N  N5355  1  0.57029602  0.52740986  0.75095561  1
  N  N5356  1  0.57029602  0.77740986  0.00095561  1
  N  N5357  1  0.57029602  0.77740986  0.25095561  1
  N  N5358  1  0.57029602  0.77740986  0.50095561  1
  N  N5359  1  0.57029602  0.77740986  0.75095561  1
  N  N5360  1  0.82029602  0.02740986  0.00095561  1
  N  N5361  1  0.82029602  0.02740986  0.25095561  1
  N  N5362  1  0.82029602  0.02740986  0.50095561  1
  N  N5363  1  0.82029602  0.02740986  0.75095561  1
  N  N5364  1  0.82029602  0.27740985  0.00095561  1
  N  N5365  1  0.82029602  0.27740985  0.25095561  1
  N  N5366  1  0.82029602  0.27740985  0.50095561  1
  N  N5367  1  0.82029602  0.27740985  0.75095561  1
  N  N5368  1  0.82029602  0.52740986  0.00095561  1
  N  N5369  1  0.82029602  0.52740986  0.25095561  1
  N  N5370  1  0.82029602  0.52740986  0.50095561  1
  N  N5371  1  0.82029602  0.52740986  0.75095561  1
  N  N5372  1  0.82029602  0.77740986  0.00095561  1
  N  N5373  1  0.82029602  0.77740986  0.25095561  1
  N  N5374  1  0.82029602  0.77740986  0.50095561  1
  N  N5375  1  0.82029602  0.77740986  0.75095561  1
  N  N5376  1  0.01968447  0.19393219  0.03443929  1
  N  N5377  1  0.01968447  0.19393219  0.28443929  1
  N  N5378  1  0.01968447  0.19393219  0.53443929  1
  N  N5379  1  0.01968447  0.19393219  0.78443929  1
  N  N5380  1  0.01968447  0.44393219  0.03443929  1
  N  N5381  1  0.01968447  0.44393219  0.28443929  1
  N  N5382  1  0.01968447  0.44393219  0.53443929  1
  N  N5383  1  0.01968447  0.44393219  0.78443929  1
  N  N5384  1  0.01968447  0.69393219  0.03443929  1
  N  N5385  1  0.01968447  0.69393219  0.28443929  1
  N  N5386  1  0.01968447  0.69393219  0.53443929  1
  N  N5387  1  0.01968447  0.69393219  0.78443929  1
  N  N5388  1  0.01968447  0.94393219  0.03443929  1
  N  N5389  1  0.01968447  0.94393219  0.28443929  1
  N  N5390  1  0.01968447  0.94393219  0.53443929  1
  N  N5391  1  0.01968447  0.94393219  0.78443929  1
  N  N5392  1  0.26968447  0.19393219  0.03443929  1
  N  N5393  1  0.26968447  0.19393219  0.28443929  1
  N  N5394  1  0.26968447  0.19393219  0.53443929  1
  N  N5395  1  0.26968447  0.19393219  0.78443929  1
  N  N5396  1  0.26968447  0.44393219  0.03443929  1
  N  N5397  1  0.26968447  0.44393219  0.28443929  1
  N  N5398  1  0.26968447  0.44393219  0.53443929  1
  N  N5399  1  0.26968447  0.44393219  0.78443929  1
  N  N5400  1  0.26968447  0.69393219  0.03443929  1
  N  N5401  1  0.26968447  0.69393219  0.28443929  1
  N  N5402  1  0.26968447  0.69393219  0.53443929  1
  N  N5403  1  0.26968447  0.69393219  0.78443929  1
  N  N5404  1  0.26968447  0.94393219  0.03443929  1
  N  N5405  1  0.26968447  0.94393219  0.28443929  1
  N  N5406  1  0.26968447  0.94393219  0.53443929  1
  N  N5407  1  0.26968447  0.94393219  0.78443929  1
  N  N5408  1  0.51968447  0.19393219  0.03443929  1
  N  N5409  1  0.51968447  0.19393219  0.28443929  1
  N  N5410  1  0.51968447  0.19393219  0.53443929  1
  N  N5411  1  0.51968447  0.19393219  0.78443929  1
  N  N5412  1  0.51968447  0.44393219  0.03443929  1
  N  N5413  1  0.51968447  0.44393219  0.28443929  1
  N  N5414  1  0.51968447  0.44393219  0.53443929  1
  N  N5415  1  0.51968447  0.44393219  0.78443929  1
  N  N5416  1  0.51968447  0.69393219  0.03443929  1
  N  N5417  1  0.51968447  0.69393219  0.28443929  1
  N  N5418  1  0.51968447  0.69393219  0.53443929  1
  N  N5419  1  0.51968447  0.69393219  0.78443929  1
  N  N5420  1  0.51968447  0.94393219  0.03443929  1
  N  N5421  1  0.51968447  0.94393219  0.28443929  1
  N  N5422  1  0.51968447  0.94393219  0.53443929  1
  N  N5423  1  0.51968447  0.94393219  0.78443929  1
  N  N5424  1  0.76968447  0.19393219  0.03443929  1
  N  N5425  1  0.76968447  0.19393219  0.28443929  1
  N  N5426  1  0.76968447  0.19393219  0.53443929  1
  N  N5427  1  0.76968447  0.19393219  0.78443929  1
  N  N5428  1  0.76968447  0.44393219  0.03443929  1
  N  N5429  1  0.76968447  0.44393219  0.28443929  1
  N  N5430  1  0.76968447  0.44393219  0.53443929  1
  N  N5431  1  0.76968447  0.44393219  0.78443929  1
  N  N5432  1  0.76968447  0.69393219  0.03443929  1
  N  N5433  1  0.76968447  0.69393219  0.28443929  1
  N  N5434  1  0.76968447  0.69393219  0.53443929  1
  N  N5435  1  0.76968447  0.69393219  0.78443929  1
  N  N5436  1  0.76968447  0.94393219  0.03443929  1
  N  N5437  1  0.76968447  0.94393219  0.28443929  1
  N  N5438  1  0.76968447  0.94393219  0.53443929  1
  N  N5439  1  0.76968447  0.94393219  0.78443929  1
  N  N5440  1  0.23031553  0.06893219  0.09056071  1
  N  N5441  1  0.23031553  0.06893219  0.34056071  1
  N  N5442  1  0.23031553  0.06893219  0.59056071  1
  N  N5443  1  0.23031553  0.06893219  0.84056071  1
  N  N5444  1  0.23031553  0.31893219  0.09056071  1
  N  N5445  1  0.23031553  0.31893219  0.34056071  1
  N  N5446  1  0.23031553  0.31893219  0.59056071  1
  N  N5447  1  0.23031553  0.31893219  0.84056071  1
  N  N5448  1  0.23031553  0.56893219  0.09056071  1
  N  N5449  1  0.23031553  0.56893219  0.34056071  1
  N  N5450  1  0.23031553  0.56893219  0.59056071  1
  N  N5451  1  0.23031553  0.56893219  0.84056071  1
  N  N5452  1  0.23031553  0.81893219  0.09056071  1
  N  N5453  1  0.23031553  0.81893219  0.34056071  1
  N  N5454  1  0.23031553  0.81893219  0.59056071  1
  N  N5455  1  0.23031553  0.81893219  0.84056071  1
  N  N5456  1  0.48031553  0.06893219  0.09056071  1
  N  N5457  1  0.48031553  0.06893219  0.34056071  1
  N  N5458  1  0.48031553  0.06893219  0.59056071  1
  N  N5459  1  0.48031553  0.06893219  0.84056071  1
  N  N5460  1  0.48031553  0.31893219  0.09056071  1
  N  N5461  1  0.48031553  0.31893219  0.34056071  1
  N  N5462  1  0.48031553  0.31893219  0.59056071  1
  N  N5463  1  0.48031553  0.31893219  0.84056071  1
  N  N5464  1  0.48031553  0.56893219  0.09056071  1
  N  N5465  1  0.48031553  0.56893219  0.34056071  1
  N  N5466  1  0.48031553  0.56893219  0.59056071  1
  N  N5467  1  0.48031553  0.56893219  0.84056071  1
  N  N5468  1  0.48031553  0.81893219  0.09056071  1
  N  N5469  1  0.48031553  0.81893219  0.34056071  1
  N  N5470  1  0.48031553  0.81893219  0.59056071  1
  N  N5471  1  0.48031553  0.81893219  0.84056071  1
  N  N5472  1  0.73031553  0.06893219  0.09056071  1
  N  N5473  1  0.73031553  0.06893219  0.34056071  1
  N  N5474  1  0.73031553  0.06893219  0.59056071  1
  N  N5475  1  0.73031553  0.06893219  0.84056071  1
  N  N5476  1  0.73031553  0.31893219  0.09056071  1
  N  N5477  1  0.73031553  0.31893219  0.34056071  1
  N  N5478  1  0.73031553  0.31893219  0.59056071  1
  N  N5479  1  0.73031553  0.31893219  0.84056071  1
  N  N5480  1  0.73031553  0.56893219  0.09056071  1
  N  N5481  1  0.73031553  0.56893219  0.34056071  1
  N  N5482  1  0.73031553  0.56893219  0.59056071  1
  N  N5483  1  0.73031553  0.56893219  0.84056071  1
  N  N5484  1  0.73031553  0.81893219  0.09056071  1
  N  N5485  1  0.73031553  0.81893219  0.34056071  1
  N  N5486  1  0.73031553  0.81893219  0.59056071  1
  N  N5487  1  0.73031553  0.81893219  0.84056071  1
  N  N5488  1  0.98031553  0.06893219  0.09056071  1
  N  N5489  1  0.98031553  0.06893219  0.34056071  1
  N  N5490  1  0.98031553  0.06893219  0.59056071  1
  N  N5491  1  0.98031553  0.06893219  0.84056071  1
  N  N5492  1  0.98031553  0.31893219  0.09056071  1
  N  N5493  1  0.98031553  0.31893219  0.34056071  1
  N  N5494  1  0.98031553  0.31893219  0.59056071  1
  N  N5495  1  0.98031553  0.31893219  0.84056071  1
  N  N5496  1  0.98031553  0.56893219  0.09056071  1
  N  N5497  1  0.98031553  0.56893219  0.34056071  1
  N  N5498  1  0.98031553  0.56893219  0.59056071  1
  N  N5499  1  0.98031553  0.56893219  0.84056071  1
  N  N5500  1  0.98031553  0.81893219  0.09056071  1
  N  N5501  1  0.98031553  0.81893219  0.34056071  1
  N  N5502  1  0.98031553  0.81893219  0.59056071  1
  N  N5503  1  0.98031553  0.81893219  0.84056071  1
  N  N5504  1  0.10531553  0.05606781  0.15943929  1
  N  N5505  1  0.10531553  0.05606781  0.40943929  1
  N  N5506  1  0.10531553  0.05606781  0.65943929  1
  N  N5507  1  0.10531553  0.05606781  0.90943929  1
  N  N5508  1  0.10531553  0.30606781  0.15943929  1
  N  N5509  1  0.10531553  0.30606781  0.40943929  1
  N  N5510  1  0.10531553  0.30606781  0.65943929  1
  N  N5511  1  0.10531553  0.30606781  0.90943929  1
  N  N5512  1  0.10531553  0.55606781  0.15943929  1
  N  N5513  1  0.10531553  0.55606781  0.40943929  1
  N  N5514  1  0.10531553  0.55606781  0.65943929  1
  N  N5515  1  0.10531553  0.55606781  0.90943929  1
  N  N5516  1  0.10531553  0.80606781  0.15943929  1
  N  N5517  1  0.10531553  0.80606781  0.40943929  1
  N  N5518  1  0.10531553  0.80606781  0.65943929  1
  N  N5519  1  0.10531553  0.80606781  0.90943929  1
  N  N5520  1  0.35531553  0.05606781  0.15943929  1
  N  N5521  1  0.35531553  0.05606781  0.40943929  1
  N  N5522  1  0.35531553  0.05606781  0.65943929  1
  N  N5523  1  0.35531553  0.05606781  0.90943929  1
  N  N5524  1  0.35531553  0.30606781  0.15943929  1
  N  N5525  1  0.35531553  0.30606781  0.40943929  1
  N  N5526  1  0.35531553  0.30606781  0.65943929  1
  N  N5527  1  0.35531553  0.30606781  0.90943929  1
  N  N5528  1  0.35531553  0.55606781  0.15943929  1
  N  N5529  1  0.35531553  0.55606781  0.40943929  1
  N  N5530  1  0.35531553  0.55606781  0.65943929  1
  N  N5531  1  0.35531553  0.55606781  0.90943929  1
  N  N5532  1  0.35531553  0.80606781  0.15943929  1
  N  N5533  1  0.35531553  0.80606781  0.40943929  1
  N  N5534  1  0.35531553  0.80606781  0.65943929  1
  N  N5535  1  0.35531553  0.80606781  0.90943929  1
  N  N5536  1  0.60531553  0.05606781  0.15943929  1
  N  N5537  1  0.60531553  0.05606781  0.40943929  1
  N  N5538  1  0.60531553  0.05606781  0.65943929  1
  N  N5539  1  0.60531553  0.05606781  0.90943929  1
  N  N5540  1  0.60531553  0.30606781  0.15943929  1
  N  N5541  1  0.60531553  0.30606781  0.40943929  1
  N  N5542  1  0.60531553  0.30606781  0.65943929  1
  N  N5543  1  0.60531553  0.30606781  0.90943929  1
  N  N5544  1  0.60531553  0.55606781  0.15943929  1
  N  N5545  1  0.60531553  0.55606781  0.40943929  1
  N  N5546  1  0.60531553  0.55606781  0.65943929  1
  N  N5547  1  0.60531553  0.55606781  0.90943929  1
  N  N5548  1  0.60531553  0.80606781  0.15943929  1
  N  N5549  1  0.60531553  0.80606781  0.40943929  1
  N  N5550  1  0.60531553  0.80606781  0.65943929  1
  N  N5551  1  0.60531553  0.80606781  0.90943929  1
  N  N5552  1  0.85531553  0.05606781  0.15943929  1
  N  N5553  1  0.85531553  0.05606781  0.40943929  1
  N  N5554  1  0.85531553  0.05606781  0.65943929  1
  N  N5555  1  0.85531553  0.05606781  0.90943929  1
  N  N5556  1  0.85531553  0.30606781  0.15943929  1
  N  N5557  1  0.85531553  0.30606781  0.40943929  1
  N  N5558  1  0.85531553  0.30606781  0.65943929  1
  N  N5559  1  0.85531553  0.30606781  0.90943929  1
  N  N5560  1  0.85531553  0.55606781  0.15943929  1
  N  N5561  1  0.85531553  0.55606781  0.40943929  1
  N  N5562  1  0.85531553  0.55606781  0.65943929  1
  N  N5563  1  0.85531553  0.55606781  0.90943929  1
  N  N5564  1  0.85531553  0.80606781  0.15943929  1
  N  N5565  1  0.85531553  0.80606781  0.40943929  1
  N  N5566  1  0.85531553  0.80606781  0.65943929  1
  N  N5567  1  0.85531553  0.80606781  0.90943929  1
  N  N5568  1  0.14468447  0.18106781  0.21556071  1
  N  N5569  1  0.14468447  0.18106781  0.46556071  1
  N  N5570  1  0.14468447  0.18106781  0.71556071  1
  N  N5571  1  0.14468447  0.18106781  0.96556071  1
  N  N5572  1  0.14468447  0.43106781  0.21556071  1
  N  N5573  1  0.14468447  0.43106781  0.46556071  1
  N  N5574  1  0.14468447  0.43106781  0.71556071  1
  N  N5575  1  0.14468447  0.43106781  0.96556071  1
  N  N5576  1  0.14468447  0.68106781  0.21556071  1
  N  N5577  1  0.14468447  0.68106781  0.46556071  1
  N  N5578  1  0.14468447  0.68106781  0.71556071  1
  N  N5579  1  0.14468447  0.68106781  0.96556071  1
  N  N5580  1  0.14468447  0.93106781  0.21556071  1
  N  N5581  1  0.14468447  0.93106781  0.46556071  1
  N  N5582  1  0.14468447  0.93106781  0.71556071  1
  N  N5583  1  0.14468447  0.93106781  0.96556071  1
  N  N5584  1  0.39468447  0.18106781  0.21556071  1
  N  N5585  1  0.39468447  0.18106781  0.46556071  1
  N  N5586  1  0.39468447  0.18106781  0.71556071  1
  N  N5587  1  0.39468447  0.18106781  0.96556071  1
  N  N5588  1  0.39468447  0.43106781  0.21556071  1
  N  N5589  1  0.39468447  0.43106781  0.46556071  1
  N  N5590  1  0.39468447  0.43106781  0.71556071  1
  N  N5591  1  0.39468447  0.43106781  0.96556071  1
  N  N5592  1  0.39468447  0.68106781  0.21556071  1
  N  N5593  1  0.39468447  0.68106781  0.46556071  1
  N  N5594  1  0.39468447  0.68106781  0.71556071  1
  N  N5595  1  0.39468447  0.68106781  0.96556071  1
  N  N5596  1  0.39468447  0.93106781  0.21556071  1
  N  N5597  1  0.39468447  0.93106781  0.46556071  1
  N  N5598  1  0.39468447  0.93106781  0.71556071  1
  N  N5599  1  0.39468447  0.93106781  0.96556071  1
  N  N5600  1  0.64468447  0.18106781  0.21556071  1
  N  N5601  1  0.64468447  0.18106781  0.46556071  1
  N  N5602  1  0.64468447  0.18106781  0.71556071  1
  N  N5603  1  0.64468447  0.18106781  0.96556071  1
  N  N5604  1  0.64468447  0.43106781  0.21556071  1
  N  N5605  1  0.64468447  0.43106781  0.46556071  1
  N  N5606  1  0.64468447  0.43106781  0.71556071  1
  N  N5607  1  0.64468447  0.43106781  0.96556071  1
  N  N5608  1  0.64468447  0.68106781  0.21556071  1
  N  N5609  1  0.64468447  0.68106781  0.46556071  1
  N  N5610  1  0.64468447  0.68106781  0.71556071  1
  N  N5611  1  0.64468447  0.68106781  0.96556071  1
  N  N5612  1  0.64468447  0.93106781  0.21556071  1
  N  N5613  1  0.64468447  0.93106781  0.46556071  1
  N  N5614  1  0.64468447  0.93106781  0.71556071  1
  N  N5615  1  0.64468447  0.93106781  0.96556071  1
  N  N5616  1  0.89468447  0.18106781  0.21556071  1
  N  N5617  1  0.89468447  0.18106781  0.46556071  1
  N  N5618  1  0.89468447  0.18106781  0.71556071  1
  N  N5619  1  0.89468447  0.18106781  0.96556071  1
  N  N5620  1  0.89468447  0.43106781  0.21556071  1
  N  N5621  1  0.89468447  0.43106781  0.46556071  1
  N  N5622  1  0.89468447  0.43106781  0.71556071  1
  N  N5623  1  0.89468447  0.43106781  0.96556071  1
  N  N5624  1  0.89468447  0.68106781  0.21556071  1
  N  N5625  1  0.89468447  0.68106781  0.46556071  1
  N  N5626  1  0.89468447  0.68106781  0.71556071  1
  N  N5627  1  0.89468447  0.68106781  0.96556071  1
  N  N5628  1  0.89468447  0.93106781  0.21556071  1
  N  N5629  1  0.89468447  0.93106781  0.46556071  1
  N  N5630  1  0.89468447  0.93106781  0.71556071  1
  N  N5631  1  0.89468447  0.93106781  0.96556071  1
  N  N5632  1  0.03443929  0.01968447  0.19393219  1
  N  N5633  1  0.03443929  0.01968447  0.44393219  1
  N  N5634  1  0.03443929  0.01968447  0.69393219  1
  N  N5635  1  0.03443929  0.01968447  0.94393219  1
  N  N5636  1  0.03443929  0.26968447  0.19393219  1
  N  N5637  1  0.03443929  0.26968447  0.44393219  1
  N  N5638  1  0.03443929  0.26968447  0.69393219  1
  N  N5639  1  0.03443929  0.26968447  0.94393219  1
  N  N5640  1  0.03443929  0.51968447  0.19393219  1
  N  N5641  1  0.03443929  0.51968447  0.44393219  1
  N  N5642  1  0.03443929  0.51968447  0.69393219  1
  N  N5643  1  0.03443929  0.51968447  0.94393219  1
  N  N5644  1  0.03443929  0.76968447  0.19393219  1
  N  N5645  1  0.03443929  0.76968447  0.44393219  1
  N  N5646  1  0.03443929  0.76968447  0.69393219  1
  N  N5647  1  0.03443929  0.76968447  0.94393219  1
  N  N5648  1  0.28443929  0.01968447  0.19393219  1
  N  N5649  1  0.28443929  0.01968447  0.44393219  1
  N  N5650  1  0.28443929  0.01968447  0.69393219  1
  N  N5651  1  0.28443929  0.01968447  0.94393219  1
  N  N5652  1  0.28443929  0.26968447  0.19393219  1
  N  N5653  1  0.28443929  0.26968447  0.44393219  1
  N  N5654  1  0.28443929  0.26968447  0.69393219  1
  N  N5655  1  0.28443929  0.26968447  0.94393219  1
  N  N5656  1  0.28443929  0.51968447  0.19393219  1
  N  N5657  1  0.28443929  0.51968447  0.44393219  1
  N  N5658  1  0.28443929  0.51968447  0.69393219  1
  N  N5659  1  0.28443929  0.51968447  0.94393219  1
  N  N5660  1  0.28443929  0.76968447  0.19393219  1
  N  N5661  1  0.28443929  0.76968447  0.44393219  1
  N  N5662  1  0.28443929  0.76968447  0.69393219  1
  N  N5663  1  0.28443929  0.76968447  0.94393219  1
  N  N5664  1  0.53443929  0.01968447  0.19393219  1
  N  N5665  1  0.53443929  0.01968447  0.44393219  1
  N  N5666  1  0.53443929  0.01968447  0.69393219  1
  N  N5667  1  0.53443929  0.01968447  0.94393219  1
  N  N5668  1  0.53443929  0.26968447  0.19393219  1
  N  N5669  1  0.53443929  0.26968447  0.44393219  1
  N  N5670  1  0.53443929  0.26968447  0.69393219  1
  N  N5671  1  0.53443929  0.26968447  0.94393219  1
  N  N5672  1  0.53443929  0.51968447  0.19393219  1
  N  N5673  1  0.53443929  0.51968447  0.44393219  1
  N  N5674  1  0.53443929  0.51968447  0.69393219  1
  N  N5675  1  0.53443929  0.51968447  0.94393219  1
  N  N5676  1  0.53443929  0.76968447  0.19393219  1
  N  N5677  1  0.53443929  0.76968447  0.44393219  1
  N  N5678  1  0.53443929  0.76968447  0.69393219  1
  N  N5679  1  0.53443929  0.76968447  0.94393219  1
  N  N5680  1  0.78443929  0.01968447  0.19393219  1
  N  N5681  1  0.78443929  0.01968447  0.44393219  1
  N  N5682  1  0.78443929  0.01968447  0.69393219  1
  N  N5683  1  0.78443929  0.01968447  0.94393219  1
  N  N5684  1  0.78443929  0.26968447  0.19393219  1
  N  N5685  1  0.78443929  0.26968447  0.44393219  1
  N  N5686  1  0.78443929  0.26968447  0.69393219  1
  N  N5687  1  0.78443929  0.26968447  0.94393219  1
  N  N5688  1  0.78443929  0.51968447  0.19393219  1
  N  N5689  1  0.78443929  0.51968447  0.44393219  1
  N  N5690  1  0.78443929  0.51968447  0.69393219  1
  N  N5691  1  0.78443929  0.51968447  0.94393219  1
  N  N5692  1  0.78443929  0.76968447  0.19393219  1
  N  N5693  1  0.78443929  0.76968447  0.44393219  1
  N  N5694  1  0.78443929  0.76968447  0.69393219  1
  N  N5695  1  0.78443929  0.76968447  0.94393219  1
  N  N5696  1  0.09056071  0.23031553  0.06893219  1
  N  N5697  1  0.09056071  0.23031553  0.31893219  1
  N  N5698  1  0.09056071  0.23031553  0.56893219  1
  N  N5699  1  0.09056071  0.23031553  0.81893219  1
  N  N5700  1  0.09056071  0.48031553  0.06893219  1
  N  N5701  1  0.09056071  0.48031553  0.31893219  1
  N  N5702  1  0.09056071  0.48031553  0.56893219  1
  N  N5703  1  0.09056071  0.48031553  0.81893219  1
  N  N5704  1  0.09056071  0.73031553  0.06893219  1
  N  N5705  1  0.09056071  0.73031553  0.31893219  1
  N  N5706  1  0.09056071  0.73031553  0.56893219  1
  N  N5707  1  0.09056071  0.73031553  0.81893219  1
  N  N5708  1  0.09056071  0.98031553  0.06893219  1
  N  N5709  1  0.09056071  0.98031553  0.31893219  1
  N  N5710  1  0.09056071  0.98031553  0.56893219  1
  N  N5711  1  0.09056071  0.98031553  0.81893219  1
  N  N5712  1  0.34056071  0.23031553  0.06893219  1
  N  N5713  1  0.34056071  0.23031553  0.31893219  1
  N  N5714  1  0.34056071  0.23031553  0.56893219  1
  N  N5715  1  0.34056071  0.23031553  0.81893219  1
  N  N5716  1  0.34056071  0.48031553  0.06893219  1
  N  N5717  1  0.34056071  0.48031553  0.31893219  1
  N  N5718  1  0.34056071  0.48031553  0.56893219  1
  N  N5719  1  0.34056071  0.48031553  0.81893219  1
  N  N5720  1  0.34056071  0.73031553  0.06893219  1
  N  N5721  1  0.34056071  0.73031553  0.31893219  1
  N  N5722  1  0.34056071  0.73031553  0.56893219  1
  N  N5723  1  0.34056071  0.73031553  0.81893219  1
  N  N5724  1  0.34056071  0.98031553  0.06893219  1
  N  N5725  1  0.34056071  0.98031553  0.31893219  1
  N  N5726  1  0.34056071  0.98031553  0.56893219  1
  N  N5727  1  0.34056071  0.98031553  0.81893219  1
  N  N5728  1  0.59056071  0.23031553  0.06893219  1
  N  N5729  1  0.59056071  0.23031553  0.31893219  1
  N  N5730  1  0.59056071  0.23031553  0.56893219  1
  N  N5731  1  0.59056071  0.23031553  0.81893219  1
  N  N5732  1  0.59056071  0.48031553  0.06893219  1
  N  N5733  1  0.59056071  0.48031553  0.31893219  1
  N  N5734  1  0.59056071  0.48031553  0.56893219  1
  N  N5735  1  0.59056071  0.48031553  0.81893219  1
  N  N5736  1  0.59056071  0.73031553  0.06893219  1
  N  N5737  1  0.59056071  0.73031553  0.31893219  1
  N  N5738  1  0.59056071  0.73031553  0.56893219  1
  N  N5739  1  0.59056071  0.73031553  0.81893219  1
  N  N5740  1  0.59056071  0.98031553  0.06893219  1
  N  N5741  1  0.59056071  0.98031553  0.31893219  1
  N  N5742  1  0.59056071  0.98031553  0.56893219  1
  N  N5743  1  0.59056071  0.98031553  0.81893219  1
  N  N5744  1  0.84056071  0.23031553  0.06893219  1
  N  N5745  1  0.84056071  0.23031553  0.31893219  1
  N  N5746  1  0.84056071  0.23031553  0.56893219  1
  N  N5747  1  0.84056071  0.23031553  0.81893219  1
  N  N5748  1  0.84056071  0.48031553  0.06893219  1
  N  N5749  1  0.84056071  0.48031553  0.31893219  1
  N  N5750  1  0.84056071  0.48031553  0.56893219  1
  N  N5751  1  0.84056071  0.48031553  0.81893219  1
  N  N5752  1  0.84056071  0.73031553  0.06893219  1
  N  N5753  1  0.84056071  0.73031553  0.31893219  1
  N  N5754  1  0.84056071  0.73031553  0.56893219  1
  N  N5755  1  0.84056071  0.73031553  0.81893219  1
  N  N5756  1  0.84056071  0.98031553  0.06893219  1
  N  N5757  1  0.84056071  0.98031553  0.31893219  1
  N  N5758  1  0.84056071  0.98031553  0.56893219  1
  N  N5759  1  0.84056071  0.98031553  0.81893219  1
  N  N5760  1  0.15943929  0.10531553  0.05606781  1
  N  N5761  1  0.15943929  0.10531553  0.30606781  1
  N  N5762  1  0.15943929  0.10531553  0.55606781  1
  N  N5763  1  0.15943929  0.10531553  0.80606781  1
  N  N5764  1  0.15943929  0.35531553  0.05606781  1
  N  N5765  1  0.15943929  0.35531553  0.30606781  1
  N  N5766  1  0.15943929  0.35531553  0.55606781  1
  N  N5767  1  0.15943929  0.35531553  0.80606781  1
  N  N5768  1  0.15943929  0.60531553  0.05606781  1
  N  N5769  1  0.15943929  0.60531553  0.30606781  1
  N  N5770  1  0.15943929  0.60531553  0.55606781  1
  N  N5771  1  0.15943929  0.60531553  0.80606781  1
  N  N5772  1  0.15943929  0.85531553  0.05606781  1
  N  N5773  1  0.15943929  0.85531553  0.30606781  1
  N  N5774  1  0.15943929  0.85531553  0.55606781  1
  N  N5775  1  0.15943929  0.85531553  0.80606781  1
  N  N5776  1  0.40943929  0.10531553  0.05606781  1
  N  N5777  1  0.40943929  0.10531553  0.30606781  1
  N  N5778  1  0.40943929  0.10531553  0.55606781  1
  N  N5779  1  0.40943929  0.10531553  0.80606781  1
  N  N5780  1  0.40943929  0.35531553  0.05606781  1
  N  N5781  1  0.40943929  0.35531553  0.30606781  1
  N  N5782  1  0.40943929  0.35531553  0.55606781  1
  N  N5783  1  0.40943929  0.35531553  0.80606781  1
  N  N5784  1  0.40943929  0.60531553  0.05606781  1
  N  N5785  1  0.40943929  0.60531553  0.30606781  1
  N  N5786  1  0.40943929  0.60531553  0.55606781  1
  N  N5787  1  0.40943929  0.60531553  0.80606781  1
  N  N5788  1  0.40943929  0.85531553  0.05606781  1
  N  N5789  1  0.40943929  0.85531553  0.30606781  1
  N  N5790  1  0.40943929  0.85531553  0.55606781  1
  N  N5791  1  0.40943929  0.85531553  0.80606781  1
  N  N5792  1  0.65943929  0.10531553  0.05606781  1
  N  N5793  1  0.65943929  0.10531553  0.30606781  1
  N  N5794  1  0.65943929  0.10531553  0.55606781  1
  N  N5795  1  0.65943929  0.10531553  0.80606781  1
  N  N5796  1  0.65943929  0.35531553  0.05606781  1
  N  N5797  1  0.65943929  0.35531553  0.30606781  1
  N  N5798  1  0.65943929  0.35531553  0.55606781  1
  N  N5799  1  0.65943929  0.35531553  0.80606781  1
  N  N5800  1  0.65943929  0.60531553  0.05606781  1
  N  N5801  1  0.65943929  0.60531553  0.30606781  1
  N  N5802  1  0.65943929  0.60531553  0.55606781  1
  N  N5803  1  0.65943929  0.60531553  0.80606781  1
  N  N5804  1  0.65943929  0.85531553  0.05606781  1
  N  N5805  1  0.65943929  0.85531553  0.30606781  1
  N  N5806  1  0.65943929  0.85531553  0.55606781  1
  N  N5807  1  0.65943929  0.85531553  0.80606781  1
  N  N5808  1  0.90943929  0.10531553  0.05606781  1
  N  N5809  1  0.90943929  0.10531553  0.30606781  1
  N  N5810  1  0.90943929  0.10531553  0.55606781  1
  N  N5811  1  0.90943929  0.10531553  0.80606781  1
  N  N5812  1  0.90943929  0.35531553  0.05606781  1
  N  N5813  1  0.90943929  0.35531553  0.30606781  1
  N  N5814  1  0.90943929  0.35531553  0.55606781  1
  N  N5815  1  0.90943929  0.35531553  0.80606781  1
  N  N5816  1  0.90943929  0.60531553  0.05606781  1
  N  N5817  1  0.90943929  0.60531553  0.30606781  1
  N  N5818  1  0.90943929  0.60531553  0.55606781  1
  N  N5819  1  0.90943929  0.60531553  0.80606781  1
  N  N5820  1  0.90943929  0.85531553  0.05606781  1
  N  N5821  1  0.90943929  0.85531553  0.30606781  1
  N  N5822  1  0.90943929  0.85531553  0.55606781  1
  N  N5823  1  0.90943929  0.85531553  0.80606781  1
  N  N5824  1  0.21556071  0.14468447  0.18106781  1
  N  N5825  1  0.21556071  0.14468447  0.43106781  1
  N  N5826  1  0.21556071  0.14468447  0.68106781  1
  N  N5827  1  0.21556071  0.14468447  0.93106781  1
  N  N5828  1  0.21556071  0.39468447  0.18106781  1
  N  N5829  1  0.21556071  0.39468447  0.43106781  1
  N  N5830  1  0.21556071  0.39468447  0.68106781  1
  N  N5831  1  0.21556071  0.39468447  0.93106781  1
  N  N5832  1  0.21556071  0.64468447  0.18106781  1
  N  N5833  1  0.21556071  0.64468447  0.43106781  1
  N  N5834  1  0.21556071  0.64468447  0.68106781  1
  N  N5835  1  0.21556071  0.64468447  0.93106781  1
  N  N5836  1  0.21556071  0.89468447  0.18106781  1
  N  N5837  1  0.21556071  0.89468447  0.43106781  1
  N  N5838  1  0.21556071  0.89468447  0.68106781  1
  N  N5839  1  0.21556071  0.89468447  0.93106781  1
  N  N5840  1  0.46556071  0.14468447  0.18106781  1
  N  N5841  1  0.46556071  0.14468447  0.43106781  1
  N  N5842  1  0.46556071  0.14468447  0.68106781  1
  N  N5843  1  0.46556071  0.14468447  0.93106781  1
  N  N5844  1  0.46556071  0.39468447  0.18106781  1
  N  N5845  1  0.46556071  0.39468447  0.43106781  1
  N  N5846  1  0.46556071  0.39468447  0.68106781  1
  N  N5847  1  0.46556071  0.39468447  0.93106781  1
  N  N5848  1  0.46556071  0.64468447  0.18106781  1
  N  N5849  1  0.46556071  0.64468447  0.43106781  1
  N  N5850  1  0.46556071  0.64468447  0.68106781  1
  N  N5851  1  0.46556071  0.64468447  0.93106781  1
  N  N5852  1  0.46556071  0.89468447  0.18106781  1
  N  N5853  1  0.46556071  0.89468447  0.43106781  1
  N  N5854  1  0.46556071  0.89468447  0.68106781  1
  N  N5855  1  0.46556071  0.89468447  0.93106781  1
  N  N5856  1  0.71556071  0.14468447  0.18106781  1
  N  N5857  1  0.71556071  0.14468447  0.43106781  1
  N  N5858  1  0.71556071  0.14468447  0.68106781  1
  N  N5859  1  0.71556071  0.14468447  0.93106781  1
  N  N5860  1  0.71556071  0.39468447  0.18106781  1
  N  N5861  1  0.71556071  0.39468447  0.43106781  1
  N  N5862  1  0.71556071  0.39468447  0.68106781  1
  N  N5863  1  0.71556071  0.39468447  0.93106781  1
  N  N5864  1  0.71556071  0.64468447  0.18106781  1
  N  N5865  1  0.71556071  0.64468447  0.43106781  1
  N  N5866  1  0.71556071  0.64468447  0.68106781  1
  N  N5867  1  0.71556071  0.64468447  0.93106781  1
  N  N5868  1  0.71556071  0.89468447  0.18106781  1
  N  N5869  1  0.71556071  0.89468447  0.43106781  1
  N  N5870  1  0.71556071  0.89468447  0.68106781  1
  N  N5871  1  0.71556071  0.89468447  0.93106781  1
  N  N5872  1  0.96556071  0.14468447  0.18106781  1
  N  N5873  1  0.96556071  0.14468447  0.43106781  1
  N  N5874  1  0.96556071  0.14468447  0.68106781  1
  N  N5875  1  0.96556071  0.14468447  0.93106781  1
  N  N5876  1  0.96556071  0.39468447  0.18106781  1
  N  N5877  1  0.96556071  0.39468447  0.43106781  1
  N  N5878  1  0.96556071  0.39468447  0.68106781  1
  N  N5879  1  0.96556071  0.39468447  0.93106781  1
  N  N5880  1  0.96556071  0.64468447  0.18106781  1
  N  N5881  1  0.96556071  0.64468447  0.43106781  1
  N  N5882  1  0.96556071  0.64468447  0.68106781  1
  N  N5883  1  0.96556071  0.64468447  0.93106781  1
  N  N5884  1  0.96556071  0.89468447  0.18106781  1
  N  N5885  1  0.96556071  0.89468447  0.43106781  1
  N  N5886  1  0.96556071  0.89468447  0.68106781  1
  N  N5887  1  0.96556071  0.89468447  0.93106781  1
  N  N5888  1  0.19393219  0.03443929  0.01968447  1
  N  N5889  1  0.19393219  0.03443929  0.26968447  1
  N  N5890  1  0.19393219  0.03443929  0.51968447  1
  N  N5891  1  0.19393219  0.03443929  0.76968447  1
  N  N5892  1  0.19393219  0.28443929  0.01968447  1
  N  N5893  1  0.19393219  0.28443929  0.26968447  1
  N  N5894  1  0.19393219  0.28443929  0.51968447  1
  N  N5895  1  0.19393219  0.28443929  0.76968447  1
  N  N5896  1  0.19393219  0.53443929  0.01968447  1
  N  N5897  1  0.19393219  0.53443929  0.26968447  1
  N  N5898  1  0.19393219  0.53443929  0.51968447  1
  N  N5899  1  0.19393219  0.53443929  0.76968447  1
  N  N5900  1  0.19393219  0.78443929  0.01968447  1
  N  N5901  1  0.19393219  0.78443929  0.26968447  1
  N  N5902  1  0.19393219  0.78443929  0.51968447  1
  N  N5903  1  0.19393219  0.78443929  0.76968447  1
  N  N5904  1  0.44393219  0.03443929  0.01968447  1
  N  N5905  1  0.44393219  0.03443929  0.26968447  1
  N  N5906  1  0.44393219  0.03443929  0.51968447  1
  N  N5907  1  0.44393219  0.03443929  0.76968447  1
  N  N5908  1  0.44393219  0.28443929  0.01968447  1
  N  N5909  1  0.44393219  0.28443929  0.26968447  1
  N  N5910  1  0.44393219  0.28443929  0.51968447  1
  N  N5911  1  0.44393219  0.28443929  0.76968447  1
  N  N5912  1  0.44393219  0.53443929  0.01968447  1
  N  N5913  1  0.44393219  0.53443929  0.26968447  1
  N  N5914  1  0.44393219  0.53443929  0.51968447  1
  N  N5915  1  0.44393219  0.53443929  0.76968447  1
  N  N5916  1  0.44393219  0.78443929  0.01968447  1
  N  N5917  1  0.44393219  0.78443929  0.26968447  1
  N  N5918  1  0.44393219  0.78443929  0.51968447  1
  N  N5919  1  0.44393219  0.78443929  0.76968447  1
  N  N5920  1  0.69393219  0.03443929  0.01968447  1
  N  N5921  1  0.69393219  0.03443929  0.26968447  1
  N  N5922  1  0.69393219  0.03443929  0.51968447  1
  N  N5923  1  0.69393219  0.03443929  0.76968447  1
  N  N5924  1  0.69393219  0.28443929  0.01968447  1
  N  N5925  1  0.69393219  0.28443929  0.26968447  1
  N  N5926  1  0.69393219  0.28443929  0.51968447  1
  N  N5927  1  0.69393219  0.28443929  0.76968447  1
  N  N5928  1  0.69393219  0.53443929  0.01968447  1
  N  N5929  1  0.69393219  0.53443929  0.26968447  1
  N  N5930  1  0.69393219  0.53443929  0.51968447  1
  N  N5931  1  0.69393219  0.53443929  0.76968447  1
  N  N5932  1  0.69393219  0.78443929  0.01968447  1
  N  N5933  1  0.69393219  0.78443929  0.26968447  1
  N  N5934  1  0.69393219  0.78443929  0.51968447  1
  N  N5935  1  0.69393219  0.78443929  0.76968447  1
  N  N5936  1  0.94393219  0.03443929  0.01968447  1
  N  N5937  1  0.94393219  0.03443929  0.26968447  1
  N  N5938  1  0.94393219  0.03443929  0.51968447  1
  N  N5939  1  0.94393219  0.03443929  0.76968447  1
  N  N5940  1  0.94393219  0.28443929  0.01968447  1
  N  N5941  1  0.94393219  0.28443929  0.26968447  1
  N  N5942  1  0.94393219  0.28443929  0.51968447  1
  N  N5943  1  0.94393219  0.28443929  0.76968447  1
  N  N5944  1  0.94393219  0.53443929  0.01968447  1
  N  N5945  1  0.94393219  0.53443929  0.26968447  1
  N  N5946  1  0.94393219  0.53443929  0.51968447  1
  N  N5947  1  0.94393219  0.53443929  0.76968447  1
  N  N5948  1  0.94393219  0.78443929  0.01968447  1
  N  N5949  1  0.94393219  0.78443929  0.26968447  1
  N  N5950  1  0.94393219  0.78443929  0.51968447  1
  N  N5951  1  0.94393219  0.78443929  0.76968447  1
  N  N5952  1  0.06893219  0.09056071  0.23031553  1
  N  N5953  1  0.06893219  0.09056071  0.48031553  1
  N  N5954  1  0.06893219  0.09056071  0.73031553  1
  N  N5955  1  0.06893219  0.09056071  0.98031553  1
  N  N5956  1  0.06893219  0.34056071  0.23031553  1
  N  N5957  1  0.06893219  0.34056071  0.48031553  1
  N  N5958  1  0.06893219  0.34056071  0.73031553  1
  N  N5959  1  0.06893219  0.34056071  0.98031553  1
  N  N5960  1  0.06893219  0.59056071  0.23031553  1
  N  N5961  1  0.06893219  0.59056071  0.48031553  1
  N  N5962  1  0.06893219  0.59056071  0.73031553  1
  N  N5963  1  0.06893219  0.59056071  0.98031553  1
  N  N5964  1  0.06893219  0.84056071  0.23031553  1
  N  N5965  1  0.06893219  0.84056071  0.48031553  1
  N  N5966  1  0.06893219  0.84056071  0.73031553  1
  N  N5967  1  0.06893219  0.84056071  0.98031553  1
  N  N5968  1  0.31893219  0.09056071  0.23031553  1
  N  N5969  1  0.31893219  0.09056071  0.48031553  1
  N  N5970  1  0.31893219  0.09056071  0.73031553  1
  N  N5971  1  0.31893219  0.09056071  0.98031553  1
  N  N5972  1  0.31893219  0.34056071  0.23031553  1
  N  N5973  1  0.31893219  0.34056071  0.48031553  1
  N  N5974  1  0.31893219  0.34056071  0.73031553  1
  N  N5975  1  0.31893219  0.34056071  0.98031553  1
  N  N5976  1  0.31893219  0.59056071  0.23031553  1
  N  N5977  1  0.31893219  0.59056071  0.48031553  1
  N  N5978  1  0.31893219  0.59056071  0.73031553  1
  N  N5979  1  0.31893219  0.59056071  0.98031553  1
  N  N5980  1  0.31893219  0.84056071  0.23031553  1
  N  N5981  1  0.31893219  0.84056071  0.48031553  1
  N  N5982  1  0.31893219  0.84056071  0.73031553  1
  N  N5983  1  0.31893219  0.84056071  0.98031553  1
  N  N5984  1  0.56893219  0.09056071  0.23031553  1
  N  N5985  1  0.56893219  0.09056071  0.48031553  1
  N  N5986  1  0.56893219  0.09056071  0.73031553  1
  N  N5987  1  0.56893219  0.09056071  0.98031553  1
  N  N5988  1  0.56893219  0.34056071  0.23031553  1
  N  N5989  1  0.56893219  0.34056071  0.48031553  1
  N  N5990  1  0.56893219  0.34056071  0.73031553  1
  N  N5991  1  0.56893219  0.34056071  0.98031553  1
  N  N5992  1  0.56893219  0.59056071  0.23031553  1
  N  N5993  1  0.56893219  0.59056071  0.48031553  1
  N  N5994  1  0.56893219  0.59056071  0.73031553  1
  N  N5995  1  0.56893219  0.59056071  0.98031553  1
  N  N5996  1  0.56893219  0.84056071  0.23031553  1
  N  N5997  1  0.56893219  0.84056071  0.48031553  1
  N  N5998  1  0.56893219  0.84056071  0.73031553  1
  N  N5999  1  0.56893219  0.84056071  0.98031553  1
  N  N6000  1  0.81893219  0.09056071  0.23031553  1
  N  N6001  1  0.81893219  0.09056071  0.48031553  1
  N  N6002  1  0.81893219  0.09056071  0.73031553  1
  N  N6003  1  0.81893219  0.09056071  0.98031553  1
  N  N6004  1  0.81893219  0.34056071  0.23031553  1
  N  N6005  1  0.81893219  0.34056071  0.48031553  1
  N  N6006  1  0.81893219  0.34056071  0.73031553  1
  N  N6007  1  0.81893219  0.34056071  0.98031553  1
  N  N6008  1  0.81893219  0.59056071  0.23031553  1
  N  N6009  1  0.81893219  0.59056071  0.48031553  1
  N  N6010  1  0.81893219  0.59056071  0.73031553  1
  N  N6011  1  0.81893219  0.59056071  0.98031553  1
  N  N6012  1  0.81893219  0.84056071  0.23031553  1
  N  N6013  1  0.81893219  0.84056071  0.48031553  1
  N  N6014  1  0.81893219  0.84056071  0.73031553  1
  N  N6015  1  0.81893219  0.84056071  0.98031553  1
  N  N6016  1  0.05606781  0.15943929  0.10531553  1
  N  N6017  1  0.05606781  0.15943929  0.35531553  1
  N  N6018  1  0.05606781  0.15943929  0.60531553  1
  N  N6019  1  0.05606781  0.15943929  0.85531553  1
  N  N6020  1  0.05606781  0.40943929  0.10531553  1
  N  N6021  1  0.05606781  0.40943929  0.35531553  1
  N  N6022  1  0.05606781  0.40943929  0.60531553  1
  N  N6023  1  0.05606781  0.40943929  0.85531553  1
  N  N6024  1  0.05606781  0.65943929  0.10531553  1
  N  N6025  1  0.05606781  0.65943929  0.35531553  1
  N  N6026  1  0.05606781  0.65943929  0.60531553  1
  N  N6027  1  0.05606781  0.65943929  0.85531553  1
  N  N6028  1  0.05606781  0.90943929  0.10531553  1
  N  N6029  1  0.05606781  0.90943929  0.35531553  1
  N  N6030  1  0.05606781  0.90943929  0.60531553  1
  N  N6031  1  0.05606781  0.90943929  0.85531553  1
  N  N6032  1  0.30606781  0.15943929  0.10531553  1
  N  N6033  1  0.30606781  0.15943929  0.35531553  1
  N  N6034  1  0.30606781  0.15943929  0.60531553  1
  N  N6035  1  0.30606781  0.15943929  0.85531553  1
  N  N6036  1  0.30606781  0.40943929  0.10531553  1
  N  N6037  1  0.30606781  0.40943929  0.35531553  1
  N  N6038  1  0.30606781  0.40943929  0.60531553  1
  N  N6039  1  0.30606781  0.40943929  0.85531553  1
  N  N6040  1  0.30606781  0.65943929  0.10531553  1
  N  N6041  1  0.30606781  0.65943929  0.35531553  1
  N  N6042  1  0.30606781  0.65943929  0.60531553  1
  N  N6043  1  0.30606781  0.65943929  0.85531553  1
  N  N6044  1  0.30606781  0.90943929  0.10531553  1
  N  N6045  1  0.30606781  0.90943929  0.35531553  1
  N  N6046  1  0.30606781  0.90943929  0.60531553  1
  N  N6047  1  0.30606781  0.90943929  0.85531553  1
  N  N6048  1  0.55606781  0.15943929  0.10531553  1
  N  N6049  1  0.55606781  0.15943929  0.35531553  1
  N  N6050  1  0.55606781  0.15943929  0.60531553  1
  N  N6051  1  0.55606781  0.15943929  0.85531553  1
  N  N6052  1  0.55606781  0.40943929  0.10531553  1
  N  N6053  1  0.55606781  0.40943929  0.35531553  1
  N  N6054  1  0.55606781  0.40943929  0.60531553  1
  N  N6055  1  0.55606781  0.40943929  0.85531553  1
  N  N6056  1  0.55606781  0.65943929  0.10531553  1
  N  N6057  1  0.55606781  0.65943929  0.35531553  1
  N  N6058  1  0.55606781  0.65943929  0.60531553  1
  N  N6059  1  0.55606781  0.65943929  0.85531553  1
  N  N6060  1  0.55606781  0.90943929  0.10531553  1
  N  N6061  1  0.55606781  0.90943929  0.35531553  1
  N  N6062  1  0.55606781  0.90943929  0.60531553  1
  N  N6063  1  0.55606781  0.90943929  0.85531553  1
  N  N6064  1  0.80606781  0.15943929  0.10531553  1
  N  N6065  1  0.80606781  0.15943929  0.35531553  1
  N  N6066  1  0.80606781  0.15943929  0.60531553  1
  N  N6067  1  0.80606781  0.15943929  0.85531553  1
  N  N6068  1  0.80606781  0.40943929  0.10531553  1
  N  N6069  1  0.80606781  0.40943929  0.35531553  1
  N  N6070  1  0.80606781  0.40943929  0.60531553  1
  N  N6071  1  0.80606781  0.40943929  0.85531553  1
  N  N6072  1  0.80606781  0.65943929  0.10531553  1
  N  N6073  1  0.80606781  0.65943929  0.35531553  1
  N  N6074  1  0.80606781  0.65943929  0.60531553  1
  N  N6075  1  0.80606781  0.65943929  0.85531553  1
  N  N6076  1  0.80606781  0.90943929  0.10531553  1
  N  N6077  1  0.80606781  0.90943929  0.35531553  1
  N  N6078  1  0.80606781  0.90943929  0.60531553  1
  N  N6079  1  0.80606781  0.90943929  0.85531553  1
  N  N6080  1  0.18106781  0.21556071  0.14468447  1
  N  N6081  1  0.18106781  0.21556071  0.39468447  1
  N  N6082  1  0.18106781  0.21556071  0.64468447  1
  N  N6083  1  0.18106781  0.21556071  0.89468447  1
  N  N6084  1  0.18106781  0.46556071  0.14468447  1
  N  N6085  1  0.18106781  0.46556071  0.39468447  1
  N  N6086  1  0.18106781  0.46556071  0.64468447  1
  N  N6087  1  0.18106781  0.46556071  0.89468447  1
  N  N6088  1  0.18106781  0.71556071  0.14468447  1
  N  N6089  1  0.18106781  0.71556071  0.39468447  1
  N  N6090  1  0.18106781  0.71556071  0.64468447  1
  N  N6091  1  0.18106781  0.71556071  0.89468447  1
  N  N6092  1  0.18106781  0.96556071  0.14468447  1
  N  N6093  1  0.18106781  0.96556071  0.39468447  1
  N  N6094  1  0.18106781  0.96556071  0.64468447  1
  N  N6095  1  0.18106781  0.96556071  0.89468447  1
  N  N6096  1  0.43106781  0.21556071  0.14468447  1
  N  N6097  1  0.43106781  0.21556071  0.39468447  1
  N  N6098  1  0.43106781  0.21556071  0.64468447  1
  N  N6099  1  0.43106781  0.21556071  0.89468447  1
  N  N6100  1  0.43106781  0.46556071  0.14468447  1
  N  N6101  1  0.43106781  0.46556071  0.39468447  1
  N  N6102  1  0.43106781  0.46556071  0.64468447  1
  N  N6103  1  0.43106781  0.46556071  0.89468447  1
  N  N6104  1  0.43106781  0.71556071  0.14468447  1
  N  N6105  1  0.43106781  0.71556071  0.39468447  1
  N  N6106  1  0.43106781  0.71556071  0.64468447  1
  N  N6107  1  0.43106781  0.71556071  0.89468447  1
  N  N6108  1  0.43106781  0.96556071  0.14468447  1
  N  N6109  1  0.43106781  0.96556071  0.39468447  1
  N  N6110  1  0.43106781  0.96556071  0.64468447  1
  N  N6111  1  0.43106781  0.96556071  0.89468447  1
  N  N6112  1  0.68106781  0.21556071  0.14468447  1
  N  N6113  1  0.68106781  0.21556071  0.39468447  1
  N  N6114  1  0.68106781  0.21556071  0.64468447  1
  N  N6115  1  0.68106781  0.21556071  0.89468447  1
  N  N6116  1  0.68106781  0.46556071  0.14468447  1
  N  N6117  1  0.68106781  0.46556071  0.39468447  1
  N  N6118  1  0.68106781  0.46556071  0.64468447  1
  N  N6119  1  0.68106781  0.46556071  0.89468447  1
  N  N6120  1  0.68106781  0.71556071  0.14468447  1
  N  N6121  1  0.68106781  0.71556071  0.39468447  1
  N  N6122  1  0.68106781  0.71556071  0.64468447  1
  N  N6123  1  0.68106781  0.71556071  0.89468447  1
  N  N6124  1  0.68106781  0.96556071  0.14468447  1
  N  N6125  1  0.68106781  0.96556071  0.39468447  1
  N  N6126  1  0.68106781  0.96556071  0.64468447  1
  N  N6127  1  0.68106781  0.96556071  0.89468447  1
  N  N6128  1  0.93106781  0.21556071  0.14468447  1
  N  N6129  1  0.93106781  0.21556071  0.39468447  1
  N  N6130  1  0.93106781  0.21556071  0.64468447  1
  N  N6131  1  0.93106781  0.21556071  0.89468447  1
  N  N6132  1  0.93106781  0.46556071  0.14468447  1
  N  N6133  1  0.93106781  0.46556071  0.39468447  1
  N  N6134  1  0.93106781  0.46556071  0.64468447  1
  N  N6135  1  0.93106781  0.46556071  0.89468447  1
  N  N6136  1  0.93106781  0.71556071  0.14468447  1
  N  N6137  1  0.93106781  0.71556071  0.39468447  1
  N  N6138  1  0.93106781  0.71556071  0.64468447  1
  N  N6139  1  0.93106781  0.71556071  0.89468447  1
  N  N6140  1  0.93106781  0.96556071  0.14468447  1
  N  N6141  1  0.93106781  0.96556071  0.39468447  1
  N  N6142  1  0.93106781  0.96556071  0.64468447  1
  N  N6143  1  0.93106781  0.96556071  0.89468447  1
  N  N6144  1  0.23031553  0.05606781  0.21556071  1
  N  N6145  1  0.23031553  0.05606781  0.46556071  1
  N  N6146  1  0.23031553  0.05606781  0.71556071  1
  N  N6147  1  0.23031553  0.05606781  0.96556071  1
  N  N6148  1  0.23031553  0.30606781  0.21556071  1
  N  N6149  1  0.23031553  0.30606781  0.46556071  1
  N  N6150  1  0.23031553  0.30606781  0.71556071  1
  N  N6151  1  0.23031553  0.30606781  0.96556071  1
  N  N6152  1  0.23031553  0.55606781  0.21556071  1
  N  N6153  1  0.23031553  0.55606781  0.46556071  1
  N  N6154  1  0.23031553  0.55606781  0.71556071  1
  N  N6155  1  0.23031553  0.55606781  0.96556071  1
  N  N6156  1  0.23031553  0.80606781  0.21556071  1
  N  N6157  1  0.23031553  0.80606781  0.46556071  1
  N  N6158  1  0.23031553  0.80606781  0.71556071  1
  N  N6159  1  0.23031553  0.80606781  0.96556071  1
  N  N6160  1  0.48031553  0.05606781  0.21556071  1
  N  N6161  1  0.48031553  0.05606781  0.46556071  1
  N  N6162  1  0.48031553  0.05606781  0.71556071  1
  N  N6163  1  0.48031553  0.05606781  0.96556071  1
  N  N6164  1  0.48031553  0.30606781  0.21556071  1
  N  N6165  1  0.48031553  0.30606781  0.46556071  1
  N  N6166  1  0.48031553  0.30606781  0.71556071  1
  N  N6167  1  0.48031553  0.30606781  0.96556071  1
  N  N6168  1  0.48031553  0.55606781  0.21556071  1
  N  N6169  1  0.48031553  0.55606781  0.46556071  1
  N  N6170  1  0.48031553  0.55606781  0.71556071  1
  N  N6171  1  0.48031553  0.55606781  0.96556071  1
  N  N6172  1  0.48031553  0.80606781  0.21556071  1
  N  N6173  1  0.48031553  0.80606781  0.46556071  1
  N  N6174  1  0.48031553  0.80606781  0.71556071  1
  N  N6175  1  0.48031553  0.80606781  0.96556071  1
  N  N6176  1  0.73031553  0.05606781  0.21556071  1
  N  N6177  1  0.73031553  0.05606781  0.46556071  1
  N  N6178  1  0.73031553  0.05606781  0.71556071  1
  N  N6179  1  0.73031553  0.05606781  0.96556071  1
  N  N6180  1  0.73031553  0.30606781  0.21556071  1
  N  N6181  1  0.73031553  0.30606781  0.46556071  1
  N  N6182  1  0.73031553  0.30606781  0.71556071  1
  N  N6183  1  0.73031553  0.30606781  0.96556071  1
  N  N6184  1  0.73031553  0.55606781  0.21556071  1
  N  N6185  1  0.73031553  0.55606781  0.46556071  1
  N  N6186  1  0.73031553  0.55606781  0.71556071  1
  N  N6187  1  0.73031553  0.55606781  0.96556071  1
  N  N6188  1  0.73031553  0.80606781  0.21556071  1
  N  N6189  1  0.73031553  0.80606781  0.46556071  1
  N  N6190  1  0.73031553  0.80606781  0.71556071  1
  N  N6191  1  0.73031553  0.80606781  0.96556071  1
  N  N6192  1  0.98031553  0.05606781  0.21556071  1
  N  N6193  1  0.98031553  0.05606781  0.46556071  1
  N  N6194  1  0.98031553  0.05606781  0.71556071  1
  N  N6195  1  0.98031553  0.05606781  0.96556071  1
  N  N6196  1  0.98031553  0.30606781  0.21556071  1
  N  N6197  1  0.98031553  0.30606781  0.46556071  1
  N  N6198  1  0.98031553  0.30606781  0.71556071  1
  N  N6199  1  0.98031553  0.30606781  0.96556071  1
  N  N6200  1  0.98031553  0.55606781  0.21556071  1
  N  N6201  1  0.98031553  0.55606781  0.46556071  1
  N  N6202  1  0.98031553  0.55606781  0.71556071  1
  N  N6203  1  0.98031553  0.55606781  0.96556071  1
  N  N6204  1  0.98031553  0.80606781  0.21556071  1
  N  N6205  1  0.98031553  0.80606781  0.46556071  1
  N  N6206  1  0.98031553  0.80606781  0.71556071  1
  N  N6207  1  0.98031553  0.80606781  0.96556071  1
  N  N6208  1  0.01968447  0.18106781  0.15943929  1
  N  N6209  1  0.01968447  0.18106781  0.40943929  1
  N  N6210  1  0.01968447  0.18106781  0.65943929  1
  N  N6211  1  0.01968447  0.18106781  0.90943929  1
  N  N6212  1  0.01968447  0.43106781  0.15943929  1
  N  N6213  1  0.01968447  0.43106781  0.40943929  1
  N  N6214  1  0.01968447  0.43106781  0.65943929  1
  N  N6215  1  0.01968447  0.43106781  0.90943929  1
  N  N6216  1  0.01968447  0.68106781  0.15943929  1
  N  N6217  1  0.01968447  0.68106781  0.40943929  1
  N  N6218  1  0.01968447  0.68106781  0.65943929  1
  N  N6219  1  0.01968447  0.68106781  0.90943929  1
  N  N6220  1  0.01968447  0.93106781  0.15943929  1
  N  N6221  1  0.01968447  0.93106781  0.40943929  1
  N  N6222  1  0.01968447  0.93106781  0.65943929  1
  N  N6223  1  0.01968447  0.93106781  0.90943929  1
  N  N6224  1  0.26968447  0.18106781  0.15943929  1
  N  N6225  1  0.26968447  0.18106781  0.40943929  1
  N  N6226  1  0.26968447  0.18106781  0.65943929  1
  N  N6227  1  0.26968447  0.18106781  0.90943929  1
  N  N6228  1  0.26968447  0.43106781  0.15943929  1
  N  N6229  1  0.26968447  0.43106781  0.40943929  1
  N  N6230  1  0.26968447  0.43106781  0.65943929  1
  N  N6231  1  0.26968447  0.43106781  0.90943929  1
  N  N6232  1  0.26968447  0.68106781  0.15943929  1
  N  N6233  1  0.26968447  0.68106781  0.40943929  1
  N  N6234  1  0.26968447  0.68106781  0.65943929  1
  N  N6235  1  0.26968447  0.68106781  0.90943929  1
  N  N6236  1  0.26968447  0.93106781  0.15943929  1
  N  N6237  1  0.26968447  0.93106781  0.40943929  1
  N  N6238  1  0.26968447  0.93106781  0.65943929  1
  N  N6239  1  0.26968447  0.93106781  0.90943929  1
  N  N6240  1  0.51968447  0.18106781  0.15943929  1
  N  N6241  1  0.51968447  0.18106781  0.40943929  1
  N  N6242  1  0.51968447  0.18106781  0.65943929  1
  N  N6243  1  0.51968447  0.18106781  0.90943929  1
  N  N6244  1  0.51968447  0.43106781  0.15943929  1
  N  N6245  1  0.51968447  0.43106781  0.40943929  1
  N  N6246  1  0.51968447  0.43106781  0.65943929  1
  N  N6247  1  0.51968447  0.43106781  0.90943929  1
  N  N6248  1  0.51968447  0.68106781  0.15943929  1
  N  N6249  1  0.51968447  0.68106781  0.40943929  1
  N  N6250  1  0.51968447  0.68106781  0.65943929  1
  N  N6251  1  0.51968447  0.68106781  0.90943929  1
  N  N6252  1  0.51968447  0.93106781  0.15943929  1
  N  N6253  1  0.51968447  0.93106781  0.40943929  1
  N  N6254  1  0.51968447  0.93106781  0.65943929  1
  N  N6255  1  0.51968447  0.93106781  0.90943929  1
  N  N6256  1  0.76968447  0.18106781  0.15943929  1
  N  N6257  1  0.76968447  0.18106781  0.40943929  1
  N  N6258  1  0.76968447  0.18106781  0.65943929  1
  N  N6259  1  0.76968447  0.18106781  0.90943929  1
  N  N6260  1  0.76968447  0.43106781  0.15943929  1
  N  N6261  1  0.76968447  0.43106781  0.40943929  1
  N  N6262  1  0.76968447  0.43106781  0.65943929  1
  N  N6263  1  0.76968447  0.43106781  0.90943929  1
  N  N6264  1  0.76968447  0.68106781  0.15943929  1
  N  N6265  1  0.76968447  0.68106781  0.40943929  1
  N  N6266  1  0.76968447  0.68106781  0.65943929  1
  N  N6267  1  0.76968447  0.68106781  0.90943929  1
  N  N6268  1  0.76968447  0.93106781  0.15943929  1
  N  N6269  1  0.76968447  0.93106781  0.40943929  1
  N  N6270  1  0.76968447  0.93106781  0.65943929  1
  N  N6271  1  0.76968447  0.93106781  0.90943929  1
  N  N6272  1  0.14468447  0.19393219  0.09056071  1
  N  N6273  1  0.14468447  0.19393219  0.34056071  1
  N  N6274  1  0.14468447  0.19393219  0.59056071  1
  N  N6275  1  0.14468447  0.19393219  0.84056071  1
  N  N6276  1  0.14468447  0.44393219  0.09056071  1
  N  N6277  1  0.14468447  0.44393219  0.34056071  1
  N  N6278  1  0.14468447  0.44393219  0.59056071  1
  N  N6279  1  0.14468447  0.44393219  0.84056071  1
  N  N6280  1  0.14468447  0.69393219  0.09056071  1
  N  N6281  1  0.14468447  0.69393219  0.34056071  1
  N  N6282  1  0.14468447  0.69393219  0.59056071  1
  N  N6283  1  0.14468447  0.69393219  0.84056071  1
  N  N6284  1  0.14468447  0.94393219  0.09056071  1
  N  N6285  1  0.14468447  0.94393219  0.34056071  1
  N  N6286  1  0.14468447  0.94393219  0.59056071  1
  N  N6287  1  0.14468447  0.94393219  0.84056071  1
  N  N6288  1  0.39468447  0.19393219  0.09056071  1
  N  N6289  1  0.39468447  0.19393219  0.34056071  1
  N  N6290  1  0.39468447  0.19393219  0.59056071  1
  N  N6291  1  0.39468447  0.19393219  0.84056071  1
  N  N6292  1  0.39468447  0.44393219  0.09056071  1
  N  N6293  1  0.39468447  0.44393219  0.34056071  1
  N  N6294  1  0.39468447  0.44393219  0.59056071  1
  N  N6295  1  0.39468447  0.44393219  0.84056071  1
  N  N6296  1  0.39468447  0.69393219  0.09056071  1
  N  N6297  1  0.39468447  0.69393219  0.34056071  1
  N  N6298  1  0.39468447  0.69393219  0.59056071  1
  N  N6299  1  0.39468447  0.69393219  0.84056071  1
  N  N6300  1  0.39468447  0.94393219  0.09056071  1
  N  N6301  1  0.39468447  0.94393219  0.34056071  1
  N  N6302  1  0.39468447  0.94393219  0.59056071  1
  N  N6303  1  0.39468447  0.94393219  0.84056071  1
  N  N6304  1  0.64468447  0.19393219  0.09056071  1
  N  N6305  1  0.64468447  0.19393219  0.34056071  1
  N  N6306  1  0.64468447  0.19393219  0.59056071  1
  N  N6307  1  0.64468447  0.19393219  0.84056071  1
  N  N6308  1  0.64468447  0.44393219  0.09056071  1
  N  N6309  1  0.64468447  0.44393219  0.34056071  1
  N  N6310  1  0.64468447  0.44393219  0.59056071  1
  N  N6311  1  0.64468447  0.44393219  0.84056071  1
  N  N6312  1  0.64468447  0.69393219  0.09056071  1
  N  N6313  1  0.64468447  0.69393219  0.34056071  1
  N  N6314  1  0.64468447  0.69393219  0.59056071  1
  N  N6315  1  0.64468447  0.69393219  0.84056071  1
  N  N6316  1  0.64468447  0.94393219  0.09056071  1
  N  N6317  1  0.64468447  0.94393219  0.34056071  1
  N  N6318  1  0.64468447  0.94393219  0.59056071  1
  N  N6319  1  0.64468447  0.94393219  0.84056071  1
  N  N6320  1  0.89468447  0.19393219  0.09056071  1
  N  N6321  1  0.89468447  0.19393219  0.34056071  1
  N  N6322  1  0.89468447  0.19393219  0.59056071  1
  N  N6323  1  0.89468447  0.19393219  0.84056071  1
  N  N6324  1  0.89468447  0.44393219  0.09056071  1
  N  N6325  1  0.89468447  0.44393219  0.34056071  1
  N  N6326  1  0.89468447  0.44393219  0.59056071  1
  N  N6327  1  0.89468447  0.44393219  0.84056071  1
  N  N6328  1  0.89468447  0.69393219  0.09056071  1
  N  N6329  1  0.89468447  0.69393219  0.34056071  1
  N  N6330  1  0.89468447  0.69393219  0.59056071  1
  N  N6331  1  0.89468447  0.69393219  0.84056071  1
  N  N6332  1  0.89468447  0.94393219  0.09056071  1
  N  N6333  1  0.89468447  0.94393219  0.34056071  1
  N  N6334  1  0.89468447  0.94393219  0.59056071  1
  N  N6335  1  0.89468447  0.94393219  0.84056071  1
  N  N6336  1  0.10531553  0.06893219  0.03443929  1
  N  N6337  1  0.10531553  0.06893219  0.28443929  1
  N  N6338  1  0.10531553  0.06893219  0.53443929  1
  N  N6339  1  0.10531553  0.06893219  0.78443929  1
  N  N6340  1  0.10531553  0.31893219  0.03443929  1
  N  N6341  1  0.10531553  0.31893219  0.28443929  1
  N  N6342  1  0.10531553  0.31893219  0.53443929  1
  N  N6343  1  0.10531553  0.31893219  0.78443929  1
  N  N6344  1  0.10531553  0.56893219  0.03443929  1
  N  N6345  1  0.10531553  0.56893219  0.28443929  1
  N  N6346  1  0.10531553  0.56893219  0.53443929  1
  N  N6347  1  0.10531553  0.56893219  0.78443929  1
  N  N6348  1  0.10531553  0.81893219  0.03443929  1
  N  N6349  1  0.10531553  0.81893219  0.28443929  1
  N  N6350  1  0.10531553  0.81893219  0.53443929  1
  N  N6351  1  0.10531553  0.81893219  0.78443929  1
  N  N6352  1  0.35531553  0.06893219  0.03443929  1
  N  N6353  1  0.35531553  0.06893219  0.28443929  1
  N  N6354  1  0.35531553  0.06893219  0.53443929  1
  N  N6355  1  0.35531553  0.06893219  0.78443929  1
  N  N6356  1  0.35531553  0.31893219  0.03443929  1
  N  N6357  1  0.35531553  0.31893219  0.28443929  1
  N  N6358  1  0.35531553  0.31893219  0.53443929  1
  N  N6359  1  0.35531553  0.31893219  0.78443929  1
  N  N6360  1  0.35531553  0.56893219  0.03443929  1
  N  N6361  1  0.35531553  0.56893219  0.28443929  1
  N  N6362  1  0.35531553  0.56893219  0.53443929  1
  N  N6363  1  0.35531553  0.56893219  0.78443929  1
  N  N6364  1  0.35531553  0.81893219  0.03443929  1
  N  N6365  1  0.35531553  0.81893219  0.28443929  1
  N  N6366  1  0.35531553  0.81893219  0.53443929  1
  N  N6367  1  0.35531553  0.81893219  0.78443929  1
  N  N6368  1  0.60531553  0.06893219  0.03443929  1
  N  N6369  1  0.60531553  0.06893219  0.28443929  1
  N  N6370  1  0.60531553  0.06893219  0.53443929  1
  N  N6371  1  0.60531553  0.06893219  0.78443929  1
  N  N6372  1  0.60531553  0.31893219  0.03443929  1
  N  N6373  1  0.60531553  0.31893219  0.28443929  1
  N  N6374  1  0.60531553  0.31893219  0.53443929  1
  N  N6375  1  0.60531553  0.31893219  0.78443929  1
  N  N6376  1  0.60531553  0.56893219  0.03443929  1
  N  N6377  1  0.60531553  0.56893219  0.28443929  1
  N  N6378  1  0.60531553  0.56893219  0.53443929  1
  N  N6379  1  0.60531553  0.56893219  0.78443929  1
  N  N6380  1  0.60531553  0.81893219  0.03443929  1
  N  N6381  1  0.60531553  0.81893219  0.28443929  1
  N  N6382  1  0.60531553  0.81893219  0.53443929  1
  N  N6383  1  0.60531553  0.81893219  0.78443929  1
  N  N6384  1  0.85531553  0.06893219  0.03443929  1
  N  N6385  1  0.85531553  0.06893219  0.28443929  1
  N  N6386  1  0.85531553  0.06893219  0.53443929  1
  N  N6387  1  0.85531553  0.06893219  0.78443929  1
  N  N6388  1  0.85531553  0.31893219  0.03443929  1
  N  N6389  1  0.85531553  0.31893219  0.28443929  1
  N  N6390  1  0.85531553  0.31893219  0.53443929  1
  N  N6391  1  0.85531553  0.31893219  0.78443929  1
  N  N6392  1  0.85531553  0.56893219  0.03443929  1
  N  N6393  1  0.85531553  0.56893219  0.28443929  1
  N  N6394  1  0.85531553  0.56893219  0.53443929  1
  N  N6395  1  0.85531553  0.56893219  0.78443929  1
  N  N6396  1  0.85531553  0.81893219  0.03443929  1
  N  N6397  1  0.85531553  0.81893219  0.28443929  1
  N  N6398  1  0.85531553  0.81893219  0.53443929  1
  N  N6399  1  0.85531553  0.81893219  0.78443929  1
  N  N6400  1  0.21556071  0.23031553  0.05606781  1
  N  N6401  1  0.21556071  0.23031553  0.30606781  1
  N  N6402  1  0.21556071  0.23031553  0.55606781  1
  N  N6403  1  0.21556071  0.23031553  0.80606781  1
  N  N6404  1  0.21556071  0.48031553  0.05606781  1
  N  N6405  1  0.21556071  0.48031553  0.30606781  1
  N  N6406  1  0.21556071  0.48031553  0.55606781  1
  N  N6407  1  0.21556071  0.48031553  0.80606781  1
  N  N6408  1  0.21556071  0.73031553  0.05606781  1
  N  N6409  1  0.21556071  0.73031553  0.30606781  1
  N  N6410  1  0.21556071  0.73031553  0.55606781  1
  N  N6411  1  0.21556071  0.73031553  0.80606781  1
  N  N6412  1  0.21556071  0.98031553  0.05606781  1
  N  N6413  1  0.21556071  0.98031553  0.30606781  1
  N  N6414  1  0.21556071  0.98031553  0.55606781  1
  N  N6415  1  0.21556071  0.98031553  0.80606781  1
  N  N6416  1  0.46556071  0.23031553  0.05606781  1
  N  N6417  1  0.46556071  0.23031553  0.30606781  1
  N  N6418  1  0.46556071  0.23031553  0.55606781  1
  N  N6419  1  0.46556071  0.23031553  0.80606781  1
  N  N6420  1  0.46556071  0.48031553  0.05606781  1
  N  N6421  1  0.46556071  0.48031553  0.30606781  1
  N  N6422  1  0.46556071  0.48031553  0.55606781  1
  N  N6423  1  0.46556071  0.48031553  0.80606781  1
  N  N6424  1  0.46556071  0.73031553  0.05606781  1
  N  N6425  1  0.46556071  0.73031553  0.30606781  1
  N  N6426  1  0.46556071  0.73031553  0.55606781  1
  N  N6427  1  0.46556071  0.73031553  0.80606781  1
  N  N6428  1  0.46556071  0.98031553  0.05606781  1
  N  N6429  1  0.46556071  0.98031553  0.30606781  1
  N  N6430  1  0.46556071  0.98031553  0.55606781  1
  N  N6431  1  0.46556071  0.98031553  0.80606781  1
  N  N6432  1  0.71556071  0.23031553  0.05606781  1
  N  N6433  1  0.71556071  0.23031553  0.30606781  1
  N  N6434  1  0.71556071  0.23031553  0.55606781  1
  N  N6435  1  0.71556071  0.23031553  0.80606781  1
  N  N6436  1  0.71556071  0.48031553  0.05606781  1
  N  N6437  1  0.71556071  0.48031553  0.30606781  1
  N  N6438  1  0.71556071  0.48031553  0.55606781  1
  N  N6439  1  0.71556071  0.48031553  0.80606781  1
  N  N6440  1  0.71556071  0.73031553  0.05606781  1
  N  N6441  1  0.71556071  0.73031553  0.30606781  1
  N  N6442  1  0.71556071  0.73031553  0.55606781  1
  N  N6443  1  0.71556071  0.73031553  0.80606781  1
  N  N6444  1  0.71556071  0.98031553  0.05606781  1
  N  N6445  1  0.71556071  0.98031553  0.30606781  1
  N  N6446  1  0.71556071  0.98031553  0.55606781  1
  N  N6447  1  0.71556071  0.98031553  0.80606781  1
  N  N6448  1  0.96556071  0.23031553  0.05606781  1
  N  N6449  1  0.96556071  0.23031553  0.30606781  1
  N  N6450  1  0.96556071  0.23031553  0.55606781  1
  N  N6451  1  0.96556071  0.23031553  0.80606781  1
  N  N6452  1  0.96556071  0.48031553  0.05606781  1
  N  N6453  1  0.96556071  0.48031553  0.30606781  1
  N  N6454  1  0.96556071  0.48031553  0.55606781  1
  N  N6455  1  0.96556071  0.48031553  0.80606781  1
  N  N6456  1  0.96556071  0.73031553  0.05606781  1
  N  N6457  1  0.96556071  0.73031553  0.30606781  1
  N  N6458  1  0.96556071  0.73031553  0.55606781  1
  N  N6459  1  0.96556071  0.73031553  0.80606781  1
  N  N6460  1  0.96556071  0.98031553  0.05606781  1
  N  N6461  1  0.96556071  0.98031553  0.30606781  1
  N  N6462  1  0.96556071  0.98031553  0.55606781  1
  N  N6463  1  0.96556071  0.98031553  0.80606781  1
  N  N6464  1  0.15943929  0.01968447  0.18106781  1
  N  N6465  1  0.15943929  0.01968447  0.43106781  1
  N  N6466  1  0.15943929  0.01968447  0.68106781  1
  N  N6467  1  0.15943929  0.01968447  0.93106781  1
  N  N6468  1  0.15943929  0.26968447  0.18106781  1
  N  N6469  1  0.15943929  0.26968447  0.43106781  1
  N  N6470  1  0.15943929  0.26968447  0.68106781  1
  N  N6471  1  0.15943929  0.26968447  0.93106781  1
  N  N6472  1  0.15943929  0.51968447  0.18106781  1
  N  N6473  1  0.15943929  0.51968447  0.43106781  1
  N  N6474  1  0.15943929  0.51968447  0.68106781  1
  N  N6475  1  0.15943929  0.51968447  0.93106781  1
  N  N6476  1  0.15943929  0.76968447  0.18106781  1
  N  N6477  1  0.15943929  0.76968447  0.43106781  1
  N  N6478  1  0.15943929  0.76968447  0.68106781  1
  N  N6479  1  0.15943929  0.76968447  0.93106781  1
  N  N6480  1  0.40943929  0.01968447  0.18106781  1
  N  N6481  1  0.40943929  0.01968447  0.43106781  1
  N  N6482  1  0.40943929  0.01968447  0.68106781  1
  N  N6483  1  0.40943929  0.01968447  0.93106781  1
  N  N6484  1  0.40943929  0.26968447  0.18106781  1
  N  N6485  1  0.40943929  0.26968447  0.43106781  1
  N  N6486  1  0.40943929  0.26968447  0.68106781  1
  N  N6487  1  0.40943929  0.26968447  0.93106781  1
  N  N6488  1  0.40943929  0.51968447  0.18106781  1
  N  N6489  1  0.40943929  0.51968447  0.43106781  1
  N  N6490  1  0.40943929  0.51968447  0.68106781  1
  N  N6491  1  0.40943929  0.51968447  0.93106781  1
  N  N6492  1  0.40943929  0.76968447  0.18106781  1
  N  N6493  1  0.40943929  0.76968447  0.43106781  1
  N  N6494  1  0.40943929  0.76968447  0.68106781  1
  N  N6495  1  0.40943929  0.76968447  0.93106781  1
  N  N6496  1  0.65943929  0.01968447  0.18106781  1
  N  N6497  1  0.65943929  0.01968447  0.43106781  1
  N  N6498  1  0.65943929  0.01968447  0.68106781  1
  N  N6499  1  0.65943929  0.01968447  0.93106781  1
  N  N6500  1  0.65943929  0.26968447  0.18106781  1
  N  N6501  1  0.65943929  0.26968447  0.43106781  1
  N  N6502  1  0.65943929  0.26968447  0.68106781  1
  N  N6503  1  0.65943929  0.26968447  0.93106781  1
  N  N6504  1  0.65943929  0.51968447  0.18106781  1
  N  N6505  1  0.65943929  0.51968447  0.43106781  1
  N  N6506  1  0.65943929  0.51968447  0.68106781  1
  N  N6507  1  0.65943929  0.51968447  0.93106781  1
  N  N6508  1  0.65943929  0.76968447  0.18106781  1
  N  N6509  1  0.65943929  0.76968447  0.43106781  1
  N  N6510  1  0.65943929  0.76968447  0.68106781  1
  N  N6511  1  0.65943929  0.76968447  0.93106781  1
  N  N6512  1  0.90943929  0.01968447  0.18106781  1
  N  N6513  1  0.90943929  0.01968447  0.43106781  1
  N  N6514  1  0.90943929  0.01968447  0.68106781  1
  N  N6515  1  0.90943929  0.01968447  0.93106781  1
  N  N6516  1  0.90943929  0.26968447  0.18106781  1
  N  N6517  1  0.90943929  0.26968447  0.43106781  1
  N  N6518  1  0.90943929  0.26968447  0.68106781  1
  N  N6519  1  0.90943929  0.26968447  0.93106781  1
  N  N6520  1  0.90943929  0.51968447  0.18106781  1
  N  N6521  1  0.90943929  0.51968447  0.43106781  1
  N  N6522  1  0.90943929  0.51968447  0.68106781  1
  N  N6523  1  0.90943929  0.51968447  0.93106781  1
  N  N6524  1  0.90943929  0.76968447  0.18106781  1
  N  N6525  1  0.90943929  0.76968447  0.43106781  1
  N  N6526  1  0.90943929  0.76968447  0.68106781  1
  N  N6527  1  0.90943929  0.76968447  0.93106781  1
  N  N6528  1  0.09056071  0.14468447  0.19393219  1
  N  N6529  1  0.09056071  0.14468447  0.44393219  1
  N  N6530  1  0.09056071  0.14468447  0.69393219  1
  N  N6531  1  0.09056071  0.14468447  0.94393219  1
  N  N6532  1  0.09056071  0.39468447  0.19393219  1
  N  N6533  1  0.09056071  0.39468447  0.44393219  1
  N  N6534  1  0.09056071  0.39468447  0.69393219  1
  N  N6535  1  0.09056071  0.39468447  0.94393219  1
  N  N6536  1  0.09056071  0.64468447  0.19393219  1
  N  N6537  1  0.09056071  0.64468447  0.44393219  1
  N  N6538  1  0.09056071  0.64468447  0.69393219  1
  N  N6539  1  0.09056071  0.64468447  0.94393219  1
  N  N6540  1  0.09056071  0.89468447  0.19393219  1
  N  N6541  1  0.09056071  0.89468447  0.44393219  1
  N  N6542  1  0.09056071  0.89468447  0.69393219  1
  N  N6543  1  0.09056071  0.89468447  0.94393219  1
  N  N6544  1  0.34056071  0.14468447  0.19393219  1
  N  N6545  1  0.34056071  0.14468447  0.44393219  1
  N  N6546  1  0.34056071  0.14468447  0.69393219  1
  N  N6547  1  0.34056071  0.14468447  0.94393219  1
  N  N6548  1  0.34056071  0.39468447  0.19393219  1
  N  N6549  1  0.34056071  0.39468447  0.44393219  1
  N  N6550  1  0.34056071  0.39468447  0.69393219  1
  N  N6551  1  0.34056071  0.39468447  0.94393219  1
  N  N6552  1  0.34056071  0.64468447  0.19393219  1
  N  N6553  1  0.34056071  0.64468447  0.44393219  1
  N  N6554  1  0.34056071  0.64468447  0.69393219  1
  N  N6555  1  0.34056071  0.64468447  0.94393219  1
  N  N6556  1  0.34056071  0.89468447  0.19393219  1
  N  N6557  1  0.34056071  0.89468447  0.44393219  1
  N  N6558  1  0.34056071  0.89468447  0.69393219  1
  N  N6559  1  0.34056071  0.89468447  0.94393219  1
  N  N6560  1  0.59056071  0.14468447  0.19393219  1
  N  N6561  1  0.59056071  0.14468447  0.44393219  1
  N  N6562  1  0.59056071  0.14468447  0.69393219  1
  N  N6563  1  0.59056071  0.14468447  0.94393219  1
  N  N6564  1  0.59056071  0.39468447  0.19393219  1
  N  N6565  1  0.59056071  0.39468447  0.44393219  1
  N  N6566  1  0.59056071  0.39468447  0.69393219  1
  N  N6567  1  0.59056071  0.39468447  0.94393219  1
  N  N6568  1  0.59056071  0.64468447  0.19393219  1
  N  N6569  1  0.59056071  0.64468447  0.44393219  1
  N  N6570  1  0.59056071  0.64468447  0.69393219  1
  N  N6571  1  0.59056071  0.64468447  0.94393219  1
  N  N6572  1  0.59056071  0.89468447  0.19393219  1
  N  N6573  1  0.59056071  0.89468447  0.44393219  1
  N  N6574  1  0.59056071  0.89468447  0.69393219  1
  N  N6575  1  0.59056071  0.89468447  0.94393219  1
  N  N6576  1  0.84056071  0.14468447  0.19393219  1
  N  N6577  1  0.84056071  0.14468447  0.44393219  1
  N  N6578  1  0.84056071  0.14468447  0.69393219  1
  N  N6579  1  0.84056071  0.14468447  0.94393219  1
  N  N6580  1  0.84056071  0.39468447  0.19393219  1
  N  N6581  1  0.84056071  0.39468447  0.44393219  1
  N  N6582  1  0.84056071  0.39468447  0.69393219  1
  N  N6583  1  0.84056071  0.39468447  0.94393219  1
  N  N6584  1  0.84056071  0.64468447  0.19393219  1
  N  N6585  1  0.84056071  0.64468447  0.44393219  1
  N  N6586  1  0.84056071  0.64468447  0.69393219  1
  N  N6587  1  0.84056071  0.64468447  0.94393219  1
  N  N6588  1  0.84056071  0.89468447  0.19393219  1
  N  N6589  1  0.84056071  0.89468447  0.44393219  1
  N  N6590  1  0.84056071  0.89468447  0.69393219  1
  N  N6591  1  0.84056071  0.89468447  0.94393219  1
  N  N6592  1  0.03443929  0.10531553  0.06893219  1
  N  N6593  1  0.03443929  0.10531553  0.31893219  1
  N  N6594  1  0.03443929  0.10531553  0.56893219  1
  N  N6595  1  0.03443929  0.10531553  0.81893219  1
  N  N6596  1  0.03443929  0.35531553  0.06893219  1
  N  N6597  1  0.03443929  0.35531553  0.31893219  1
  N  N6598  1  0.03443929  0.35531553  0.56893219  1
  N  N6599  1  0.03443929  0.35531553  0.81893219  1
  N  N6600  1  0.03443929  0.60531553  0.06893219  1
  N  N6601  1  0.03443929  0.60531553  0.31893219  1
  N  N6602  1  0.03443929  0.60531553  0.56893219  1
  N  N6603  1  0.03443929  0.60531553  0.81893219  1
  N  N6604  1  0.03443929  0.85531553  0.06893219  1
  N  N6605  1  0.03443929  0.85531553  0.31893219  1
  N  N6606  1  0.03443929  0.85531553  0.56893219  1
  N  N6607  1  0.03443929  0.85531553  0.81893219  1
  N  N6608  1  0.28443929  0.10531553  0.06893219  1
  N  N6609  1  0.28443929  0.10531553  0.31893219  1
  N  N6610  1  0.28443929  0.10531553  0.56893219  1
  N  N6611  1  0.28443929  0.10531553  0.81893219  1
  N  N6612  1  0.28443929  0.35531553  0.06893219  1
  N  N6613  1  0.28443929  0.35531553  0.31893219  1
  N  N6614  1  0.28443929  0.35531553  0.56893219  1
  N  N6615  1  0.28443929  0.35531553  0.81893219  1
  N  N6616  1  0.28443929  0.60531553  0.06893219  1
  N  N6617  1  0.28443929  0.60531553  0.31893219  1
  N  N6618  1  0.28443929  0.60531553  0.56893219  1
  N  N6619  1  0.28443929  0.60531553  0.81893219  1
  N  N6620  1  0.28443929  0.85531553  0.06893219  1
  N  N6621  1  0.28443929  0.85531553  0.31893219  1
  N  N6622  1  0.28443929  0.85531553  0.56893219  1
  N  N6623  1  0.28443929  0.85531553  0.81893219  1
  N  N6624  1  0.53443929  0.10531553  0.06893219  1
  N  N6625  1  0.53443929  0.10531553  0.31893219  1
  N  N6626  1  0.53443929  0.10531553  0.56893219  1
  N  N6627  1  0.53443929  0.10531553  0.81893219  1
  N  N6628  1  0.53443929  0.35531553  0.06893219  1
  N  N6629  1  0.53443929  0.35531553  0.31893219  1
  N  N6630  1  0.53443929  0.35531553  0.56893219  1
  N  N6631  1  0.53443929  0.35531553  0.81893219  1
  N  N6632  1  0.53443929  0.60531553  0.06893219  1
  N  N6633  1  0.53443929  0.60531553  0.31893219  1
  N  N6634  1  0.53443929  0.60531553  0.56893219  1
  N  N6635  1  0.53443929  0.60531553  0.81893219  1
  N  N6636  1  0.53443929  0.85531553  0.06893219  1
  N  N6637  1  0.53443929  0.85531553  0.31893219  1
  N  N6638  1  0.53443929  0.85531553  0.56893219  1
  N  N6639  1  0.53443929  0.85531553  0.81893219  1
  N  N6640  1  0.78443929  0.10531553  0.06893219  1
  N  N6641  1  0.78443929  0.10531553  0.31893219  1
  N  N6642  1  0.78443929  0.10531553  0.56893219  1
  N  N6643  1  0.78443929  0.10531553  0.81893219  1
  N  N6644  1  0.78443929  0.35531553  0.06893219  1
  N  N6645  1  0.78443929  0.35531553  0.31893219  1
  N  N6646  1  0.78443929  0.35531553  0.56893219  1
  N  N6647  1  0.78443929  0.35531553  0.81893219  1
  N  N6648  1  0.78443929  0.60531553  0.06893219  1
  N  N6649  1  0.78443929  0.60531553  0.31893219  1
  N  N6650  1  0.78443929  0.60531553  0.56893219  1
  N  N6651  1  0.78443929  0.60531553  0.81893219  1
  N  N6652  1  0.78443929  0.85531553  0.06893219  1
  N  N6653  1  0.78443929  0.85531553  0.31893219  1
  N  N6654  1  0.78443929  0.85531553  0.56893219  1
  N  N6655  1  0.78443929  0.85531553  0.81893219  1
  N  N6656  1  0.05606781  0.21556071  0.23031553  1
  N  N6657  1  0.05606781  0.21556071  0.48031553  1
  N  N6658  1  0.05606781  0.21556071  0.73031553  1
  N  N6659  1  0.05606781  0.21556071  0.98031553  1
  N  N6660  1  0.05606781  0.46556071  0.23031553  1
  N  N6661  1  0.05606781  0.46556071  0.48031553  1
  N  N6662  1  0.05606781  0.46556071  0.73031553  1
  N  N6663  1  0.05606781  0.46556071  0.98031553  1
  N  N6664  1  0.05606781  0.71556071  0.23031553  1
  N  N6665  1  0.05606781  0.71556071  0.48031553  1
  N  N6666  1  0.05606781  0.71556071  0.73031553  1
  N  N6667  1  0.05606781  0.71556071  0.98031553  1
  N  N6668  1  0.05606781  0.96556071  0.23031553  1
  N  N6669  1  0.05606781  0.96556071  0.48031553  1
  N  N6670  1  0.05606781  0.96556071  0.73031553  1
  N  N6671  1  0.05606781  0.96556071  0.98031553  1
  N  N6672  1  0.30606781  0.21556071  0.23031553  1
  N  N6673  1  0.30606781  0.21556071  0.48031553  1
  N  N6674  1  0.30606781  0.21556071  0.73031553  1
  N  N6675  1  0.30606781  0.21556071  0.98031553  1
  N  N6676  1  0.30606781  0.46556071  0.23031553  1
  N  N6677  1  0.30606781  0.46556071  0.48031553  1
  N  N6678  1  0.30606781  0.46556071  0.73031553  1
  N  N6679  1  0.30606781  0.46556071  0.98031553  1
  N  N6680  1  0.30606781  0.71556071  0.23031553  1
  N  N6681  1  0.30606781  0.71556071  0.48031553  1
  N  N6682  1  0.30606781  0.71556071  0.73031553  1
  N  N6683  1  0.30606781  0.71556071  0.98031553  1
  N  N6684  1  0.30606781  0.96556071  0.23031553  1
  N  N6685  1  0.30606781  0.96556071  0.48031553  1
  N  N6686  1  0.30606781  0.96556071  0.73031553  1
  N  N6687  1  0.30606781  0.96556071  0.98031553  1
  N  N6688  1  0.55606781  0.21556071  0.23031553  1
  N  N6689  1  0.55606781  0.21556071  0.48031553  1
  N  N6690  1  0.55606781  0.21556071  0.73031553  1
  N  N6691  1  0.55606781  0.21556071  0.98031553  1
  N  N6692  1  0.55606781  0.46556071  0.23031553  1
  N  N6693  1  0.55606781  0.46556071  0.48031553  1
  N  N6694  1  0.55606781  0.46556071  0.73031553  1
  N  N6695  1  0.55606781  0.46556071  0.98031553  1
  N  N6696  1  0.55606781  0.71556071  0.23031553  1
  N  N6697  1  0.55606781  0.71556071  0.48031553  1
  N  N6698  1  0.55606781  0.71556071  0.73031553  1
  N  N6699  1  0.55606781  0.71556071  0.98031553  1
  N  N6700  1  0.55606781  0.96556071  0.23031553  1
  N  N6701  1  0.55606781  0.96556071  0.48031553  1
  N  N6702  1  0.55606781  0.96556071  0.73031553  1
  N  N6703  1  0.55606781  0.96556071  0.98031553  1
  N  N6704  1  0.80606781  0.21556071  0.23031553  1
  N  N6705  1  0.80606781  0.21556071  0.48031553  1
  N  N6706  1  0.80606781  0.21556071  0.73031553  1
  N  N6707  1  0.80606781  0.21556071  0.98031553  1
  N  N6708  1  0.80606781  0.46556071  0.23031553  1
  N  N6709  1  0.80606781  0.46556071  0.48031553  1
  N  N6710  1  0.80606781  0.46556071  0.73031553  1
  N  N6711  1  0.80606781  0.46556071  0.98031553  1
  N  N6712  1  0.80606781  0.71556071  0.23031553  1
  N  N6713  1  0.80606781  0.71556071  0.48031553  1
  N  N6714  1  0.80606781  0.71556071  0.73031553  1
  N  N6715  1  0.80606781  0.71556071  0.98031553  1
  N  N6716  1  0.80606781  0.96556071  0.23031553  1
  N  N6717  1  0.80606781  0.96556071  0.48031553  1
  N  N6718  1  0.80606781  0.96556071  0.73031553  1
  N  N6719  1  0.80606781  0.96556071  0.98031553  1
  N  N6720  1  0.18106781  0.15943929  0.01968447  1
  N  N6721  1  0.18106781  0.15943929  0.26968447  1
  N  N6722  1  0.18106781  0.15943929  0.51968447  1
  N  N6723  1  0.18106781  0.15943929  0.76968447  1
  N  N6724  1  0.18106781  0.40943929  0.01968447  1
  N  N6725  1  0.18106781  0.40943929  0.26968447  1
  N  N6726  1  0.18106781  0.40943929  0.51968447  1
  N  N6727  1  0.18106781  0.40943929  0.76968447  1
  N  N6728  1  0.18106781  0.65943929  0.01968447  1
  N  N6729  1  0.18106781  0.65943929  0.26968447  1
  N  N6730  1  0.18106781  0.65943929  0.51968447  1
  N  N6731  1  0.18106781  0.65943929  0.76968447  1
  N  N6732  1  0.18106781  0.90943929  0.01968447  1
  N  N6733  1  0.18106781  0.90943929  0.26968447  1
  N  N6734  1  0.18106781  0.90943929  0.51968447  1
  N  N6735  1  0.18106781  0.90943929  0.76968447  1
  N  N6736  1  0.43106781  0.15943929  0.01968447  1
  N  N6737  1  0.43106781  0.15943929  0.26968447  1
  N  N6738  1  0.43106781  0.15943929  0.51968447  1
  N  N6739  1  0.43106781  0.15943929  0.76968447  1
  N  N6740  1  0.43106781  0.40943929  0.01968447  1
  N  N6741  1  0.43106781  0.40943929  0.26968447  1
  N  N6742  1  0.43106781  0.40943929  0.51968447  1
  N  N6743  1  0.43106781  0.40943929  0.76968447  1
  N  N6744  1  0.43106781  0.65943929  0.01968447  1
  N  N6745  1  0.43106781  0.65943929  0.26968447  1
  N  N6746  1  0.43106781  0.65943929  0.51968447  1
  N  N6747  1  0.43106781  0.65943929  0.76968447  1
  N  N6748  1  0.43106781  0.90943929  0.01968447  1
  N  N6749  1  0.43106781  0.90943929  0.26968447  1
  N  N6750  1  0.43106781  0.90943929  0.51968447  1
  N  N6751  1  0.43106781  0.90943929  0.76968447  1
  N  N6752  1  0.68106781  0.15943929  0.01968447  1
  N  N6753  1  0.68106781  0.15943929  0.26968447  1
  N  N6754  1  0.68106781  0.15943929  0.51968447  1
  N  N6755  1  0.68106781  0.15943929  0.76968447  1
  N  N6756  1  0.68106781  0.40943929  0.01968447  1
  N  N6757  1  0.68106781  0.40943929  0.26968447  1
  N  N6758  1  0.68106781  0.40943929  0.51968447  1
  N  N6759  1  0.68106781  0.40943929  0.76968447  1
  N  N6760  1  0.68106781  0.65943929  0.01968447  1
  N  N6761  1  0.68106781  0.65943929  0.26968447  1
  N  N6762  1  0.68106781  0.65943929  0.51968447  1
  N  N6763  1  0.68106781  0.65943929  0.76968447  1
  N  N6764  1  0.68106781  0.90943929  0.01968447  1
  N  N6765  1  0.68106781  0.90943929  0.26968447  1
  N  N6766  1  0.68106781  0.90943929  0.51968447  1
  N  N6767  1  0.68106781  0.90943929  0.76968447  1
  N  N6768  1  0.93106781  0.15943929  0.01968447  1
  N  N6769  1  0.93106781  0.15943929  0.26968447  1
  N  N6770  1  0.93106781  0.15943929  0.51968447  1
  N  N6771  1  0.93106781  0.15943929  0.76968447  1
  N  N6772  1  0.93106781  0.40943929  0.01968447  1
  N  N6773  1  0.93106781  0.40943929  0.26968447  1
  N  N6774  1  0.93106781  0.40943929  0.51968447  1
  N  N6775  1  0.93106781  0.40943929  0.76968447  1
  N  N6776  1  0.93106781  0.65943929  0.01968447  1
  N  N6777  1  0.93106781  0.65943929  0.26968447  1
  N  N6778  1  0.93106781  0.65943929  0.51968447  1
  N  N6779  1  0.93106781  0.65943929  0.76968447  1
  N  N6780  1  0.93106781  0.90943929  0.01968447  1
  N  N6781  1  0.93106781  0.90943929  0.26968447  1
  N  N6782  1  0.93106781  0.90943929  0.51968447  1
  N  N6783  1  0.93106781  0.90943929  0.76968447  1
  N  N6784  1  0.19393219  0.09056071  0.14468447  1
  N  N6785  1  0.19393219  0.09056071  0.39468447  1
  N  N6786  1  0.19393219  0.09056071  0.64468447  1
  N  N6787  1  0.19393219  0.09056071  0.89468447  1
  N  N6788  1  0.19393219  0.34056071  0.14468447  1
  N  N6789  1  0.19393219  0.34056071  0.39468447  1
  N  N6790  1  0.19393219  0.34056071  0.64468447  1
  N  N6791  1  0.19393219  0.34056071  0.89468447  1
  N  N6792  1  0.19393219  0.59056071  0.14468447  1
  N  N6793  1  0.19393219  0.59056071  0.39468447  1
  N  N6794  1  0.19393219  0.59056071  0.64468447  1
  N  N6795  1  0.19393219  0.59056071  0.89468447  1
  N  N6796  1  0.19393219  0.84056071  0.14468447  1
  N  N6797  1  0.19393219  0.84056071  0.39468447  1
  N  N6798  1  0.19393219  0.84056071  0.64468447  1
  N  N6799  1  0.19393219  0.84056071  0.89468447  1
  N  N6800  1  0.44393219  0.09056071  0.14468447  1
  N  N6801  1  0.44393219  0.09056071  0.39468447  1
  N  N6802  1  0.44393219  0.09056071  0.64468447  1
  N  N6803  1  0.44393219  0.09056071  0.89468447  1
  N  N6804  1  0.44393219  0.34056071  0.14468447  1
  N  N6805  1  0.44393219  0.34056071  0.39468447  1
  N  N6806  1  0.44393219  0.34056071  0.64468447  1
  N  N6807  1  0.44393219  0.34056071  0.89468447  1
  N  N6808  1  0.44393219  0.59056071  0.14468447  1
  N  N6809  1  0.44393219  0.59056071  0.39468447  1
  N  N6810  1  0.44393219  0.59056071  0.64468447  1
  N  N6811  1  0.44393219  0.59056071  0.89468447  1
  N  N6812  1  0.44393219  0.84056071  0.14468447  1
  N  N6813  1  0.44393219  0.84056071  0.39468447  1
  N  N6814  1  0.44393219  0.84056071  0.64468447  1
  N  N6815  1  0.44393219  0.84056071  0.89468447  1
  N  N6816  1  0.69393219  0.09056071  0.14468447  1
  N  N6817  1  0.69393219  0.09056071  0.39468447  1
  N  N6818  1  0.69393219  0.09056071  0.64468447  1
  N  N6819  1  0.69393219  0.09056071  0.89468447  1
  N  N6820  1  0.69393219  0.34056071  0.14468447  1
  N  N6821  1  0.69393219  0.34056071  0.39468447  1
  N  N6822  1  0.69393219  0.34056071  0.64468447  1
  N  N6823  1  0.69393219  0.34056071  0.89468447  1
  N  N6824  1  0.69393219  0.59056071  0.14468447  1
  N  N6825  1  0.69393219  0.59056071  0.39468447  1
  N  N6826  1  0.69393219  0.59056071  0.64468447  1
  N  N6827  1  0.69393219  0.59056071  0.89468447  1
  N  N6828  1  0.69393219  0.84056071  0.14468447  1
  N  N6829  1  0.69393219  0.84056071  0.39468447  1
  N  N6830  1  0.69393219  0.84056071  0.64468447  1
  N  N6831  1  0.69393219  0.84056071  0.89468447  1
  N  N6832  1  0.94393219  0.09056071  0.14468447  1
  N  N6833  1  0.94393219  0.09056071  0.39468447  1
  N  N6834  1  0.94393219  0.09056071  0.64468447  1
  N  N6835  1  0.94393219  0.09056071  0.89468447  1
  N  N6836  1  0.94393219  0.34056071  0.14468447  1
  N  N6837  1  0.94393219  0.34056071  0.39468447  1
  N  N6838  1  0.94393219  0.34056071  0.64468447  1
  N  N6839  1  0.94393219  0.34056071  0.89468447  1
  N  N6840  1  0.94393219  0.59056071  0.14468447  1
  N  N6841  1  0.94393219  0.59056071  0.39468447  1
  N  N6842  1  0.94393219  0.59056071  0.64468447  1
  N  N6843  1  0.94393219  0.59056071  0.89468447  1
  N  N6844  1  0.94393219  0.84056071  0.14468447  1
  N  N6845  1  0.94393219  0.84056071  0.39468447  1
  N  N6846  1  0.94393219  0.84056071  0.64468447  1
  N  N6847  1  0.94393219  0.84056071  0.89468447  1
  N  N6848  1  0.06893219  0.03443929  0.10531553  1
  N  N6849  1  0.06893219  0.03443929  0.35531553  1
  N  N6850  1  0.06893219  0.03443929  0.60531553  1
  N  N6851  1  0.06893219  0.03443929  0.85531553  1
  N  N6852  1  0.06893219  0.28443929  0.10531553  1
  N  N6853  1  0.06893219  0.28443929  0.35531553  1
  N  N6854  1  0.06893219  0.28443929  0.60531553  1
  N  N6855  1  0.06893219  0.28443929  0.85531553  1
  N  N6856  1  0.06893219  0.53443929  0.10531553  1
  N  N6857  1  0.06893219  0.53443929  0.35531553  1
  N  N6858  1  0.06893219  0.53443929  0.60531553  1
  N  N6859  1  0.06893219  0.53443929  0.85531553  1
  N  N6860  1  0.06893219  0.78443929  0.10531553  1
  N  N6861  1  0.06893219  0.78443929  0.35531553  1
  N  N6862  1  0.06893219  0.78443929  0.60531553  1
  N  N6863  1  0.06893219  0.78443929  0.85531553  1
  N  N6864  1  0.31893219  0.03443929  0.10531553  1
  N  N6865  1  0.31893219  0.03443929  0.35531553  1
  N  N6866  1  0.31893219  0.03443929  0.60531553  1
  N  N6867  1  0.31893219  0.03443929  0.85531553  1
  N  N6868  1  0.31893219  0.28443929  0.10531553  1
  N  N6869  1  0.31893219  0.28443929  0.35531553  1
  N  N6870  1  0.31893219  0.28443929  0.60531553  1
  N  N6871  1  0.31893219  0.28443929  0.85531553  1
  N  N6872  1  0.31893219  0.53443929  0.10531553  1
  N  N6873  1  0.31893219  0.53443929  0.35531553  1
  N  N6874  1  0.31893219  0.53443929  0.60531553  1
  N  N6875  1  0.31893219  0.53443929  0.85531553  1
  N  N6876  1  0.31893219  0.78443929  0.10531553  1
  N  N6877  1  0.31893219  0.78443929  0.35531553  1
  N  N6878  1  0.31893219  0.78443929  0.60531553  1
  N  N6879  1  0.31893219  0.78443929  0.85531553  1
  N  N6880  1  0.56893219  0.03443929  0.10531553  1
  N  N6881  1  0.56893219  0.03443929  0.35531553  1
  N  N6882  1  0.56893219  0.03443929  0.60531553  1
  N  N6883  1  0.56893219  0.03443929  0.85531553  1
  N  N6884  1  0.56893219  0.28443929  0.10531553  1
  N  N6885  1  0.56893219  0.28443929  0.35531553  1
  N  N6886  1  0.56893219  0.28443929  0.60531553  1
  N  N6887  1  0.56893219  0.28443929  0.85531553  1
  N  N6888  1  0.56893219  0.53443929  0.10531553  1
  N  N6889  1  0.56893219  0.53443929  0.35531553  1
  N  N6890  1  0.56893219  0.53443929  0.60531553  1
  N  N6891  1  0.56893219  0.53443929  0.85531553  1
  N  N6892  1  0.56893219  0.78443929  0.10531553  1
  N  N6893  1  0.56893219  0.78443929  0.35531553  1
  N  N6894  1  0.56893219  0.78443929  0.60531553  1
  N  N6895  1  0.56893219  0.78443929  0.85531553  1
  N  N6896  1  0.81893219  0.03443929  0.10531553  1
  N  N6897  1  0.81893219  0.03443929  0.35531553  1
  N  N6898  1  0.81893219  0.03443929  0.60531553  1
  N  N6899  1  0.81893219  0.03443929  0.85531553  1
  N  N6900  1  0.81893219  0.28443929  0.10531553  1
  N  N6901  1  0.81893219  0.28443929  0.35531553  1
  N  N6902  1  0.81893219  0.28443929  0.60531553  1
  N  N6903  1  0.81893219  0.28443929  0.85531553  1
  N  N6904  1  0.81893219  0.53443929  0.10531553  1
  N  N6905  1  0.81893219  0.53443929  0.35531553  1
  N  N6906  1  0.81893219  0.53443929  0.60531553  1
  N  N6907  1  0.81893219  0.53443929  0.85531553  1
  N  N6908  1  0.81893219  0.78443929  0.10531553  1
  N  N6909  1  0.81893219  0.78443929  0.35531553  1
  N  N6910  1  0.81893219  0.78443929  0.60531553  1
  N  N6911  1  0.81893219  0.78443929  0.85531553  1
