# generated using pymatgen
data_Li2EuSiO4
_symmetry_space_group_name_H-M   'P 1'
_cell_length_a   25.25390774
_cell_length_b   25.25390774
_cell_length_c   62.44179500
_cell_angle_alpha   90.00000000
_cell_angle_beta   90.00000000
_cell_angle_gamma   119.99999409
_symmetry_Int_Tables_number   1
_chemical_formula_structural   Li2EuSiO4
_chemical_formula_sum   'Li750 Eu375 Si375 O1500'
_cell_volume   34487.61930668
_cell_formula_units_Z   375
loop_
 _symmetry_equiv_pos_site_id
 _symmetry_equiv_pos_as_xyz
  1  'x, y, z'
loop_
 _atom_site_type_symbol
 _atom_site_label
 _atom_site_symmetry_multiplicity
 _atom_site_fract_x
 _atom_site_fract_y
 _atom_site_fract_z
 _atom_site_occupancy
  Li  Li0  1  0.08138720  0.01460840  0.01584840  1
  Li  Li1  1  0.08138720  0.01460840  0.21584840  1
  Li  Li2  1  0.08138720  0.01460840  0.41584840  1
  Li  Li3  1  0.08138720  0.01460840  0.61584840  1
  Li  Li4  1  0.08138720  0.01460840  0.81584840  1
  Li  Li5  1  0.08138720  0.21460840  0.01584840  1
  Li  Li6  1  0.08138720  0.21460840  0.21584840  1
  Li  Li7  1  0.08138720  0.21460840  0.41584840  1
  Li  Li8  1  0.08138720  0.21460840  0.61584840  1
  Li  Li9  1  0.08138720  0.21460840  0.81584840  1
  Li  Li10  1  0.08138720  0.41460840  0.01584840  1
  Li  Li11  1  0.08138720  0.41460840  0.21584840  1
  Li  Li12  1  0.08138720  0.41460840  0.41584840  1
  Li  Li13  1  0.08138720  0.41460840  0.61584840  1
  Li  Li14  1  0.08138720  0.41460840  0.81584840  1
  Li  Li15  1  0.08138720  0.61460840  0.01584840  1
  Li  Li16  1  0.08138720  0.61460840  0.21584840  1
  Li  Li17  1  0.08138720  0.61460840  0.41584840  1
  Li  Li18  1  0.08138720  0.61460840  0.61584840  1
  Li  Li19  1  0.08138720  0.61460840  0.81584840  1
  Li  Li20  1  0.08138720  0.81460840  0.01584840  1
  Li  Li21  1  0.08138720  0.81460840  0.21584840  1
  Li  Li22  1  0.08138720  0.81460840  0.41584840  1
  Li  Li23  1  0.08138720  0.81460840  0.61584840  1
  Li  Li24  1  0.08138720  0.81460840  0.81584840  1
  Li  Li25  1  0.28138720  0.01460840  0.01584840  1
  Li  Li26  1  0.28138720  0.01460840  0.21584840  1
  Li  Li27  1  0.28138720  0.01460840  0.41584840  1
  Li  Li28  1  0.28138720  0.01460840  0.61584840  1
  Li  Li29  1  0.28138720  0.01460840  0.81584840  1
  Li  Li30  1  0.28138720  0.21460840  0.01584840  1
  Li  Li31  1  0.28138720  0.21460840  0.21584840  1
  Li  Li32  1  0.28138720  0.21460840  0.41584840  1
  Li  Li33  1  0.28138720  0.21460840  0.61584840  1
  Li  Li34  1  0.28138720  0.21460840  0.81584840  1
  Li  Li35  1  0.28138720  0.41460840  0.01584840  1
  Li  Li36  1  0.28138720  0.41460840  0.21584840  1
  Li  Li37  1  0.28138720  0.41460840  0.41584840  1
  Li  Li38  1  0.28138720  0.41460840  0.61584840  1
  Li  Li39  1  0.28138720  0.41460840  0.81584840  1
  Li  Li40  1  0.28138720  0.61460840  0.01584840  1
  Li  Li41  1  0.28138720  0.61460840  0.21584840  1
  Li  Li42  1  0.28138720  0.61460840  0.41584840  1
  Li  Li43  1  0.28138720  0.61460840  0.61584840  1
  Li  Li44  1  0.28138720  0.61460840  0.81584840  1
  Li  Li45  1  0.28138720  0.81460840  0.01584840  1
  Li  Li46  1  0.28138720  0.81460840  0.21584840  1
  Li  Li47  1  0.28138720  0.81460840  0.41584840  1
  Li  Li48  1  0.28138720  0.81460840  0.61584840  1
  Li  Li49  1  0.28138720  0.81460840  0.81584840  1
  Li  Li50  1  0.48138720  0.01460840  0.01584840  1
  Li  Li51  1  0.48138720  0.01460840  0.21584840  1
  Li  Li52  1  0.48138720  0.01460840  0.41584840  1
  Li  Li53  1  0.48138720  0.01460840  0.61584840  1
  Li  Li54  1  0.48138720  0.01460840  0.81584840  1
  Li  Li55  1  0.48138720  0.21460840  0.01584840  1
  Li  Li56  1  0.48138720  0.21460840  0.21584840  1
  Li  Li57  1  0.48138720  0.21460840  0.41584840  1
  Li  Li58  1  0.48138720  0.21460840  0.61584840  1
  Li  Li59  1  0.48138720  0.21460840  0.81584840  1
  Li  Li60  1  0.48138720  0.41460840  0.01584840  1
  Li  Li61  1  0.48138720  0.41460840  0.21584840  1
  Li  Li62  1  0.48138720  0.41460840  0.41584840  1
  Li  Li63  1  0.48138720  0.41460840  0.61584840  1
  Li  Li64  1  0.48138720  0.41460840  0.81584840  1
  Li  Li65  1  0.48138720  0.61460840  0.01584840  1
  Li  Li66  1  0.48138720  0.61460840  0.21584840  1
  Li  Li67  1  0.48138720  0.61460840  0.41584840  1
  Li  Li68  1  0.48138720  0.61460840  0.61584840  1
  Li  Li69  1  0.48138720  0.61460840  0.81584840  1
  Li  Li70  1  0.48138720  0.81460840  0.01584840  1
  Li  Li71  1  0.48138720  0.81460840  0.21584840  1
  Li  Li72  1  0.48138720  0.81460840  0.41584840  1
  Li  Li73  1  0.48138720  0.81460840  0.61584840  1
  Li  Li74  1  0.48138720  0.81460840  0.81584840  1
  Li  Li75  1  0.68138720  0.01460840  0.01584840  1
  Li  Li76  1  0.68138720  0.01460840  0.21584840  1
  Li  Li77  1  0.68138720  0.01460840  0.41584840  1
  Li  Li78  1  0.68138720  0.01460840  0.61584840  1
  Li  Li79  1  0.68138720  0.01460840  0.81584840  1
  Li  Li80  1  0.68138720  0.21460840  0.01584840  1
  Li  Li81  1  0.68138720  0.21460840  0.21584840  1
  Li  Li82  1  0.68138720  0.21460840  0.41584840  1
  Li  Li83  1  0.68138720  0.21460840  0.61584840  1
  Li  Li84  1  0.68138720  0.21460840  0.81584840  1
  Li  Li85  1  0.68138720  0.41460840  0.01584840  1
  Li  Li86  1  0.68138720  0.41460840  0.21584840  1
  Li  Li87  1  0.68138720  0.41460840  0.41584840  1
  Li  Li88  1  0.68138720  0.41460840  0.61584840  1
  Li  Li89  1  0.68138720  0.41460840  0.81584840  1
  Li  Li90  1  0.68138720  0.61460840  0.01584840  1
  Li  Li91  1  0.68138720  0.61460840  0.21584840  1
  Li  Li92  1  0.68138720  0.61460840  0.41584840  1
  Li  Li93  1  0.68138720  0.61460840  0.61584840  1
  Li  Li94  1  0.68138720  0.61460840  0.81584840  1
  Li  Li95  1  0.68138720  0.81460840  0.01584840  1
  Li  Li96  1  0.68138720  0.81460840  0.21584840  1
  Li  Li97  1  0.68138720  0.81460840  0.41584840  1
  Li  Li98  1  0.68138720  0.81460840  0.61584840  1
  Li  Li99  1  0.68138720  0.81460840  0.81584840  1
  Li  Li100  1  0.88138720  0.01460840  0.01584840  1
  Li  Li101  1  0.88138720  0.01460840  0.21584840  1
  Li  Li102  1  0.88138720  0.01460840  0.41584840  1
  Li  Li103  1  0.88138720  0.01460840  0.61584840  1
  Li  Li104  1  0.88138720  0.01460840  0.81584840  1
  Li  Li105  1  0.88138720  0.21460840  0.01584840  1
  Li  Li106  1  0.88138720  0.21460840  0.21584840  1
  Li  Li107  1  0.88138720  0.21460840  0.41584840  1
  Li  Li108  1  0.88138720  0.21460840  0.61584840  1
  Li  Li109  1  0.88138720  0.21460840  0.81584840  1
  Li  Li110  1  0.88138720  0.41460840  0.01584840  1
  Li  Li111  1  0.88138720  0.41460840  0.21584840  1
  Li  Li112  1  0.88138720  0.41460840  0.41584840  1
  Li  Li113  1  0.88138720  0.41460840  0.61584840  1
  Li  Li114  1  0.88138720  0.41460840  0.81584840  1
  Li  Li115  1  0.88138720  0.61460840  0.01584840  1
  Li  Li116  1  0.88138720  0.61460840  0.21584840  1
  Li  Li117  1  0.88138720  0.61460840  0.41584840  1
  Li  Li118  1  0.88138720  0.61460840  0.61584840  1
  Li  Li119  1  0.88138720  0.61460840  0.81584840  1
  Li  Li120  1  0.88138720  0.81460840  0.01584840  1
  Li  Li121  1  0.88138720  0.81460840  0.21584840  1
  Li  Li122  1  0.88138720  0.81460840  0.41584840  1
  Li  Li123  1  0.88138720  0.81460840  0.61584840  1
  Li  Li124  1  0.88138720  0.81460840  0.81584840  1
  Li  Li125  1  0.18539160  0.06677860  0.08251520  1
  Li  Li126  1  0.18539160  0.06677860  0.28251520  1
  Li  Li127  1  0.18539160  0.06677860  0.48251520  1
  Li  Li128  1  0.18539160  0.06677860  0.68251520  1
  Li  Li129  1  0.18539160  0.06677860  0.88251520  1
  Li  Li130  1  0.18539160  0.26677860  0.08251520  1
  Li  Li131  1  0.18539160  0.26677860  0.28251520  1
  Li  Li132  1  0.18539160  0.26677860  0.48251520  1
  Li  Li133  1  0.18539160  0.26677860  0.68251520  1
  Li  Li134  1  0.18539160  0.26677860  0.88251520  1
  Li  Li135  1  0.18539160  0.46677860  0.08251520  1
  Li  Li136  1  0.18539160  0.46677860  0.28251520  1
  Li  Li137  1  0.18539160  0.46677860  0.48251520  1
  Li  Li138  1  0.18539160  0.46677860  0.68251520  1
  Li  Li139  1  0.18539160  0.46677860  0.88251520  1
  Li  Li140  1  0.18539160  0.66677860  0.08251520  1
  Li  Li141  1  0.18539160  0.66677860  0.28251520  1
  Li  Li142  1  0.18539160  0.66677860  0.48251520  1
  Li  Li143  1  0.18539160  0.66677860  0.68251520  1
  Li  Li144  1  0.18539160  0.66677860  0.88251520  1
  Li  Li145  1  0.18539160  0.86677860  0.08251520  1
  Li  Li146  1  0.18539160  0.86677860  0.28251520  1
  Li  Li147  1  0.18539160  0.86677860  0.48251520  1
  Li  Li148  1  0.18539160  0.86677860  0.68251520  1
  Li  Li149  1  0.18539160  0.86677860  0.88251520  1
  Li  Li150  1  0.38539160  0.06677860  0.08251520  1
  Li  Li151  1  0.38539160  0.06677860  0.28251520  1
  Li  Li152  1  0.38539160  0.06677860  0.48251520  1
  Li  Li153  1  0.38539160  0.06677860  0.68251520  1
  Li  Li154  1  0.38539160  0.06677860  0.88251520  1
  Li  Li155  1  0.38539160  0.26677860  0.08251520  1
  Li  Li156  1  0.38539160  0.26677860  0.28251520  1
  Li  Li157  1  0.38539160  0.26677860  0.48251520  1
  Li  Li158  1  0.38539160  0.26677860  0.68251520  1
  Li  Li159  1  0.38539160  0.26677860  0.88251520  1
  Li  Li160  1  0.38539160  0.46677860  0.08251520  1
  Li  Li161  1  0.38539160  0.46677860  0.28251520  1
  Li  Li162  1  0.38539160  0.46677860  0.48251520  1
  Li  Li163  1  0.38539160  0.46677860  0.68251520  1
  Li  Li164  1  0.38539160  0.46677860  0.88251520  1
  Li  Li165  1  0.38539160  0.66677860  0.08251520  1
  Li  Li166  1  0.38539160  0.66677860  0.28251520  1
  Li  Li167  1  0.38539160  0.66677860  0.48251520  1
  Li  Li168  1  0.38539160  0.66677860  0.68251520  1
  Li  Li169  1  0.38539160  0.66677860  0.88251520  1
  Li  Li170  1  0.38539160  0.86677860  0.08251520  1
  Li  Li171  1  0.38539160  0.86677860  0.28251520  1
  Li  Li172  1  0.38539160  0.86677860  0.48251520  1
  Li  Li173  1  0.38539160  0.86677860  0.68251520  1
  Li  Li174  1  0.38539160  0.86677860  0.88251520  1
  Li  Li175  1  0.58539160  0.06677860  0.08251520  1
  Li  Li176  1  0.58539160  0.06677860  0.28251520  1
  Li  Li177  1  0.58539160  0.06677860  0.48251520  1
  Li  Li178  1  0.58539160  0.06677860  0.68251520  1
  Li  Li179  1  0.58539160  0.06677860  0.88251520  1
  Li  Li180  1  0.58539160  0.26677860  0.08251520  1
  Li  Li181  1  0.58539160  0.26677860  0.28251520  1
  Li  Li182  1  0.58539160  0.26677860  0.48251520  1
  Li  Li183  1  0.58539160  0.26677860  0.68251520  1
  Li  Li184  1  0.58539160  0.26677860  0.88251520  1
  Li  Li185  1  0.58539160  0.46677860  0.08251520  1
  Li  Li186  1  0.58539160  0.46677860  0.28251520  1
  Li  Li187  1  0.58539160  0.46677860  0.48251520  1
  Li  Li188  1  0.58539160  0.46677860  0.68251520  1
  Li  Li189  1  0.58539160  0.46677860  0.88251520  1
  Li  Li190  1  0.58539160  0.66677860  0.08251520  1
  Li  Li191  1  0.58539160  0.66677860  0.28251520  1
  Li  Li192  1  0.58539160  0.66677860  0.48251520  1
  Li  Li193  1  0.58539160  0.66677860  0.68251520  1
  Li  Li194  1  0.58539160  0.66677860  0.88251520  1
  Li  Li195  1  0.58539160  0.86677860  0.08251520  1
  Li  Li196  1  0.58539160  0.86677860  0.28251520  1
  Li  Li197  1  0.58539160  0.86677860  0.48251520  1
  Li  Li198  1  0.58539160  0.86677860  0.68251520  1
  Li  Li199  1  0.58539160  0.86677860  0.88251520  1
  Li  Li200  1  0.78539160  0.06677860  0.08251520  1
  Li  Li201  1  0.78539160  0.06677860  0.28251520  1
  Li  Li202  1  0.78539160  0.06677860  0.48251520  1
  Li  Li203  1  0.78539160  0.06677860  0.68251520  1
  Li  Li204  1  0.78539160  0.06677860  0.88251520  1
  Li  Li205  1  0.78539160  0.26677860  0.08251520  1
  Li  Li206  1  0.78539160  0.26677860  0.28251520  1
  Li  Li207  1  0.78539160  0.26677860  0.48251520  1
  Li  Li208  1  0.78539160  0.26677860  0.68251520  1
  Li  Li209  1  0.78539160  0.26677860  0.88251520  1
  Li  Li210  1  0.78539160  0.46677860  0.08251520  1
  Li  Li211  1  0.78539160  0.46677860  0.28251520  1
  Li  Li212  1  0.78539160  0.46677860  0.48251520  1
  Li  Li213  1  0.78539160  0.46677860  0.68251520  1
  Li  Li214  1  0.78539160  0.46677860  0.88251520  1
  Li  Li215  1  0.78539160  0.66677860  0.08251520  1
  Li  Li216  1  0.78539160  0.66677860  0.28251520  1
  Li  Li217  1  0.78539160  0.66677860  0.48251520  1
  Li  Li218  1  0.78539160  0.66677860  0.68251520  1
  Li  Li219  1  0.78539160  0.66677860  0.88251520  1
  Li  Li220  1  0.78539160  0.86677860  0.08251520  1
  Li  Li221  1  0.78539160  0.86677860  0.28251520  1
  Li  Li222  1  0.78539160  0.86677860  0.48251520  1
  Li  Li223  1  0.78539160  0.86677860  0.68251520  1
  Li  Li224  1  0.78539160  0.86677860  0.88251520  1
  Li  Li225  1  0.98539160  0.06677860  0.08251520  1
  Li  Li226  1  0.98539160  0.06677860  0.28251520  1
  Li  Li227  1  0.98539160  0.06677860  0.48251520  1
  Li  Li228  1  0.98539160  0.06677860  0.68251520  1
  Li  Li229  1  0.98539160  0.06677860  0.88251520  1
  Li  Li230  1  0.98539160  0.26677860  0.08251520  1
  Li  Li231  1  0.98539160  0.26677860  0.28251520  1
  Li  Li232  1  0.98539160  0.26677860  0.48251520  1
  Li  Li233  1  0.98539160  0.26677860  0.68251520  1
  Li  Li234  1  0.98539160  0.26677860  0.88251520  1
  Li  Li235  1  0.98539160  0.46677860  0.08251520  1
  Li  Li236  1  0.98539160  0.46677860  0.28251520  1
  Li  Li237  1  0.98539160  0.46677860  0.48251520  1
  Li  Li238  1  0.98539160  0.46677860  0.68251520  1
  Li  Li239  1  0.98539160  0.46677860  0.88251520  1
  Li  Li240  1  0.98539160  0.66677860  0.08251520  1
  Li  Li241  1  0.98539160  0.66677860  0.28251520  1
  Li  Li242  1  0.98539160  0.66677860  0.48251520  1
  Li  Li243  1  0.98539160  0.66677860  0.68251520  1
  Li  Li244  1  0.98539160  0.66677860  0.88251520  1
  Li  Li245  1  0.98539160  0.86677860  0.08251520  1
  Li  Li246  1  0.98539160  0.86677860  0.28251520  1
  Li  Li247  1  0.98539160  0.86677860  0.48251520  1
  Li  Li248  1  0.98539160  0.86677860  0.68251520  1
  Li  Li249  1  0.98539160  0.86677860  0.88251520  1
  Li  Li250  1  0.13322140  0.11861280  0.14918180  1
  Li  Li251  1  0.13322140  0.11861280  0.34918180  1
  Li  Li252  1  0.13322140  0.11861280  0.54918180  1
  Li  Li253  1  0.13322140  0.11861280  0.74918180  1
  Li  Li254  1  0.13322140  0.11861280  0.94918180  1
  Li  Li255  1  0.13322140  0.31861280  0.14918180  1
  Li  Li256  1  0.13322140  0.31861280  0.34918180  1
  Li  Li257  1  0.13322140  0.31861280  0.54918180  1
  Li  Li258  1  0.13322140  0.31861280  0.74918180  1
  Li  Li259  1  0.13322140  0.31861280  0.94918180  1
  Li  Li260  1  0.13322140  0.51861280  0.14918180  1
  Li  Li261  1  0.13322140  0.51861280  0.34918180  1
  Li  Li262  1  0.13322140  0.51861280  0.54918180  1
  Li  Li263  1  0.13322140  0.51861280  0.74918180  1
  Li  Li264  1  0.13322140  0.51861280  0.94918180  1
  Li  Li265  1  0.13322140  0.71861280  0.14918180  1
  Li  Li266  1  0.13322140  0.71861280  0.34918180  1
  Li  Li267  1  0.13322140  0.71861280  0.54918180  1
  Li  Li268  1  0.13322140  0.71861280  0.74918180  1
  Li  Li269  1  0.13322140  0.71861280  0.94918180  1
  Li  Li270  1  0.13322140  0.91861280  0.14918180  1
  Li  Li271  1  0.13322140  0.91861280  0.34918180  1
  Li  Li272  1  0.13322140  0.91861280  0.54918180  1
  Li  Li273  1  0.13322140  0.91861280  0.74918180  1
  Li  Li274  1  0.13322140  0.91861280  0.94918180  1
  Li  Li275  1  0.33322140  0.11861280  0.14918180  1
  Li  Li276  1  0.33322140  0.11861280  0.34918180  1
  Li  Li277  1  0.33322140  0.11861280  0.54918180  1
  Li  Li278  1  0.33322140  0.11861280  0.74918180  1
  Li  Li279  1  0.33322140  0.11861280  0.94918180  1
  Li  Li280  1  0.33322140  0.31861280  0.14918180  1
  Li  Li281  1  0.33322140  0.31861280  0.34918180  1
  Li  Li282  1  0.33322140  0.31861280  0.54918180  1
  Li  Li283  1  0.33322140  0.31861280  0.74918180  1
  Li  Li284  1  0.33322140  0.31861280  0.94918180  1
  Li  Li285  1  0.33322140  0.51861280  0.14918180  1
  Li  Li286  1  0.33322140  0.51861280  0.34918180  1
  Li  Li287  1  0.33322140  0.51861280  0.54918180  1
  Li  Li288  1  0.33322140  0.51861280  0.74918180  1
  Li  Li289  1  0.33322140  0.51861280  0.94918180  1
  Li  Li290  1  0.33322140  0.71861280  0.14918180  1
  Li  Li291  1  0.33322140  0.71861280  0.34918180  1
  Li  Li292  1  0.33322140  0.71861280  0.54918180  1
  Li  Li293  1  0.33322140  0.71861280  0.74918180  1
  Li  Li294  1  0.33322140  0.71861280  0.94918180  1
  Li  Li295  1  0.33322140  0.91861280  0.14918180  1
  Li  Li296  1  0.33322140  0.91861280  0.34918180  1
  Li  Li297  1  0.33322140  0.91861280  0.54918180  1
  Li  Li298  1  0.33322140  0.91861280  0.74918180  1
  Li  Li299  1  0.33322140  0.91861280  0.94918180  1
  Li  Li300  1  0.53322140  0.11861280  0.14918180  1
  Li  Li301  1  0.53322140  0.11861280  0.34918180  1
  Li  Li302  1  0.53322140  0.11861280  0.54918180  1
  Li  Li303  1  0.53322140  0.11861280  0.74918180  1
  Li  Li304  1  0.53322140  0.11861280  0.94918180  1
  Li  Li305  1  0.53322140  0.31861280  0.14918180  1
  Li  Li306  1  0.53322140  0.31861280  0.34918180  1
  Li  Li307  1  0.53322140  0.31861280  0.54918180  1
  Li  Li308  1  0.53322140  0.31861280  0.74918180  1
  Li  Li309  1  0.53322140  0.31861280  0.94918180  1
  Li  Li310  1  0.53322140  0.51861280  0.14918180  1
  Li  Li311  1  0.53322140  0.51861280  0.34918180  1
  Li  Li312  1  0.53322140  0.51861280  0.54918180  1
  Li  Li313  1  0.53322140  0.51861280  0.74918180  1
  Li  Li314  1  0.53322140  0.51861280  0.94918180  1
  Li  Li315  1  0.53322140  0.71861280  0.14918180  1
  Li  Li316  1  0.53322140  0.71861280  0.34918180  1
  Li  Li317  1  0.53322140  0.71861280  0.54918180  1
  Li  Li318  1  0.53322140  0.71861280  0.74918180  1
  Li  Li319  1  0.53322140  0.71861280  0.94918180  1
  Li  Li320  1  0.53322140  0.91861280  0.14918180  1
  Li  Li321  1  0.53322140  0.91861280  0.34918180  1
  Li  Li322  1  0.53322140  0.91861280  0.54918180  1
  Li  Li323  1  0.53322140  0.91861280  0.74918180  1
  Li  Li324  1  0.53322140  0.91861280  0.94918180  1
  Li  Li325  1  0.73322140  0.11861280  0.14918180  1
  Li  Li326  1  0.73322140  0.11861280  0.34918180  1
  Li  Li327  1  0.73322140  0.11861280  0.54918180  1
  Li  Li328  1  0.73322140  0.11861280  0.74918180  1
  Li  Li329  1  0.73322140  0.11861280  0.94918180  1
  Li  Li330  1  0.73322140  0.31861280  0.14918180  1
  Li  Li331  1  0.73322140  0.31861280  0.34918180  1
  Li  Li332  1  0.73322140  0.31861280  0.54918180  1
  Li  Li333  1  0.73322140  0.31861280  0.74918180  1
  Li  Li334  1  0.73322140  0.31861280  0.94918180  1
  Li  Li335  1  0.73322140  0.51861280  0.14918180  1
  Li  Li336  1  0.73322140  0.51861280  0.34918180  1
  Li  Li337  1  0.73322140  0.51861280  0.54918180  1
  Li  Li338  1  0.73322140  0.51861280  0.74918180  1
  Li  Li339  1  0.73322140  0.51861280  0.94918180  1
  Li  Li340  1  0.73322140  0.71861280  0.14918180  1
  Li  Li341  1  0.73322140  0.71861280  0.34918180  1
  Li  Li342  1  0.73322140  0.71861280  0.54918180  1
  Li  Li343  1  0.73322140  0.71861280  0.74918180  1
  Li  Li344  1  0.73322140  0.71861280  0.94918180  1
  Li  Li345  1  0.73322140  0.91861280  0.14918180  1
  Li  Li346  1  0.73322140  0.91861280  0.34918180  1
  Li  Li347  1  0.73322140  0.91861280  0.54918180  1
  Li  Li348  1  0.73322140  0.91861280  0.74918180  1
  Li  Li349  1  0.73322140  0.91861280  0.94918180  1
  Li  Li350  1  0.93322140  0.11861280  0.14918180  1
  Li  Li351  1  0.93322140  0.11861280  0.34918180  1
  Li  Li352  1  0.93322140  0.11861280  0.54918180  1
  Li  Li353  1  0.93322140  0.11861280  0.74918180  1
  Li  Li354  1  0.93322140  0.11861280  0.94918180  1
  Li  Li355  1  0.93322140  0.31861280  0.14918180  1
  Li  Li356  1  0.93322140  0.31861280  0.34918180  1
  Li  Li357  1  0.93322140  0.31861280  0.54918180  1
  Li  Li358  1  0.93322140  0.31861280  0.74918180  1
  Li  Li359  1  0.93322140  0.31861280  0.94918180  1
  Li  Li360  1  0.93322140  0.51861280  0.14918180  1
  Li  Li361  1  0.93322140  0.51861280  0.34918180  1
  Li  Li362  1  0.93322140  0.51861280  0.54918180  1
  Li  Li363  1  0.93322140  0.51861280  0.74918180  1
  Li  Li364  1  0.93322140  0.51861280  0.94918180  1
  Li  Li365  1  0.93322140  0.71861280  0.14918180  1
  Li  Li366  1  0.93322140  0.71861280  0.34918180  1
  Li  Li367  1  0.93322140  0.71861280  0.54918180  1
  Li  Li368  1  0.93322140  0.71861280  0.74918180  1
  Li  Li369  1  0.93322140  0.71861280  0.94918180  1
  Li  Li370  1  0.93322140  0.91861280  0.14918180  1
  Li  Li371  1  0.93322140  0.91861280  0.34918180  1
  Li  Li372  1  0.93322140  0.91861280  0.54918180  1
  Li  Li373  1  0.93322140  0.91861280  0.74918180  1
  Li  Li374  1  0.93322140  0.91861280  0.94918180  1
  Li  Li375  1  0.06677860  0.18539160  0.11748480  1
  Li  Li376  1  0.06677860  0.18539160  0.31748480  1
  Li  Li377  1  0.06677860  0.18539160  0.51748480  1
  Li  Li378  1  0.06677860  0.18539160  0.71748480  1
  Li  Li379  1  0.06677860  0.18539160  0.91748480  1
  Li  Li380  1  0.06677860  0.38539160  0.11748480  1
  Li  Li381  1  0.06677860  0.38539160  0.31748480  1
  Li  Li382  1  0.06677860  0.38539160  0.51748480  1
  Li  Li383  1  0.06677860  0.38539160  0.71748480  1
  Li  Li384  1  0.06677860  0.38539160  0.91748480  1
  Li  Li385  1  0.06677860  0.58539160  0.11748480  1
  Li  Li386  1  0.06677860  0.58539160  0.31748480  1
  Li  Li387  1  0.06677860  0.58539160  0.51748480  1
  Li  Li388  1  0.06677860  0.58539160  0.71748480  1
  Li  Li389  1  0.06677860  0.58539160  0.91748480  1
  Li  Li390  1  0.06677860  0.78539160  0.11748480  1
  Li  Li391  1  0.06677860  0.78539160  0.31748480  1
  Li  Li392  1  0.06677860  0.78539160  0.51748480  1
  Li  Li393  1  0.06677860  0.78539160  0.71748480  1
  Li  Li394  1  0.06677860  0.78539160  0.91748480  1
  Li  Li395  1  0.06677860  0.98539160  0.11748480  1
  Li  Li396  1  0.06677860  0.98539160  0.31748480  1
  Li  Li397  1  0.06677860  0.98539160  0.51748480  1
  Li  Li398  1  0.06677860  0.98539160  0.71748480  1
  Li  Li399  1  0.06677860  0.98539160  0.91748480  1
  Li  Li400  1  0.26677860  0.18539160  0.11748480  1
  Li  Li401  1  0.26677860  0.18539160  0.31748480  1
  Li  Li402  1  0.26677860  0.18539160  0.51748480  1
  Li  Li403  1  0.26677860  0.18539160  0.71748480  1
  Li  Li404  1  0.26677860  0.18539160  0.91748480  1
  Li  Li405  1  0.26677860  0.38539160  0.11748480  1
  Li  Li406  1  0.26677860  0.38539160  0.31748480  1
  Li  Li407  1  0.26677860  0.38539160  0.51748480  1
  Li  Li408  1  0.26677860  0.38539160  0.71748480  1
  Li  Li409  1  0.26677860  0.38539160  0.91748480  1
  Li  Li410  1  0.26677860  0.58539160  0.11748480  1
  Li  Li411  1  0.26677860  0.58539160  0.31748480  1
  Li  Li412  1  0.26677860  0.58539160  0.51748480  1
  Li  Li413  1  0.26677860  0.58539160  0.71748480  1
  Li  Li414  1  0.26677860  0.58539160  0.91748480  1
  Li  Li415  1  0.26677860  0.78539160  0.11748480  1
  Li  Li416  1  0.26677860  0.78539160  0.31748480  1
  Li  Li417  1  0.26677860  0.78539160  0.51748480  1
  Li  Li418  1  0.26677860  0.78539160  0.71748480  1
  Li  Li419  1  0.26677860  0.78539160  0.91748480  1
  Li  Li420  1  0.26677860  0.98539160  0.11748480  1
  Li  Li421  1  0.26677860  0.98539160  0.31748480  1
  Li  Li422  1  0.26677860  0.98539160  0.51748480  1
  Li  Li423  1  0.26677860  0.98539160  0.71748480  1
  Li  Li424  1  0.26677860  0.98539160  0.91748480  1
  Li  Li425  1  0.46677860  0.18539160  0.11748480  1
  Li  Li426  1  0.46677860  0.18539160  0.31748480  1
  Li  Li427  1  0.46677860  0.18539160  0.51748480  1
  Li  Li428  1  0.46677860  0.18539160  0.71748480  1
  Li  Li429  1  0.46677860  0.18539160  0.91748480  1
  Li  Li430  1  0.46677860  0.38539160  0.11748480  1
  Li  Li431  1  0.46677860  0.38539160  0.31748480  1
  Li  Li432  1  0.46677860  0.38539160  0.51748480  1
  Li  Li433  1  0.46677860  0.38539160  0.71748480  1
  Li  Li434  1  0.46677860  0.38539160  0.91748480  1
  Li  Li435  1  0.46677860  0.58539160  0.11748480  1
  Li  Li436  1  0.46677860  0.58539160  0.31748480  1
  Li  Li437  1  0.46677860  0.58539160  0.51748480  1
  Li  Li438  1  0.46677860  0.58539160  0.71748480  1
  Li  Li439  1  0.46677860  0.58539160  0.91748480  1
  Li  Li440  1  0.46677860  0.78539160  0.11748480  1
  Li  Li441  1  0.46677860  0.78539160  0.31748480  1
  Li  Li442  1  0.46677860  0.78539160  0.51748480  1
  Li  Li443  1  0.46677860  0.78539160  0.71748480  1
  Li  Li444  1  0.46677860  0.78539160  0.91748480  1
  Li  Li445  1  0.46677860  0.98539160  0.11748480  1
  Li  Li446  1  0.46677860  0.98539160  0.31748480  1
  Li  Li447  1  0.46677860  0.98539160  0.51748480  1
  Li  Li448  1  0.46677860  0.98539160  0.71748480  1
  Li  Li449  1  0.46677860  0.98539160  0.91748480  1
  Li  Li450  1  0.66677860  0.18539160  0.11748480  1
  Li  Li451  1  0.66677860  0.18539160  0.31748480  1
  Li  Li452  1  0.66677860  0.18539160  0.51748480  1
  Li  Li453  1  0.66677860  0.18539160  0.71748480  1
  Li  Li454  1  0.66677860  0.18539160  0.91748480  1
  Li  Li455  1  0.66677860  0.38539160  0.11748480  1
  Li  Li456  1  0.66677860  0.38539160  0.31748480  1
  Li  Li457  1  0.66677860  0.38539160  0.51748480  1
  Li  Li458  1  0.66677860  0.38539160  0.71748480  1
  Li  Li459  1  0.66677860  0.38539160  0.91748480  1
  Li  Li460  1  0.66677860  0.58539160  0.11748480  1
  Li  Li461  1  0.66677860  0.58539160  0.31748480  1
  Li  Li462  1  0.66677860  0.58539160  0.51748480  1
  Li  Li463  1  0.66677860  0.58539160  0.71748480  1
  Li  Li464  1  0.66677860  0.58539160  0.91748480  1
  Li  Li465  1  0.66677860  0.78539160  0.11748480  1
  Li  Li466  1  0.66677860  0.78539160  0.31748480  1
  Li  Li467  1  0.66677860  0.78539160  0.51748480  1
  Li  Li468  1  0.66677860  0.78539160  0.71748480  1
  Li  Li469  1  0.66677860  0.78539160  0.91748480  1
  Li  Li470  1  0.66677860  0.98539160  0.11748480  1
  Li  Li471  1  0.66677860  0.98539160  0.31748480  1
  Li  Li472  1  0.66677860  0.98539160  0.51748480  1
  Li  Li473  1  0.66677860  0.98539160  0.71748480  1
  Li  Li474  1  0.66677860  0.98539160  0.91748480  1
  Li  Li475  1  0.86677860  0.18539160  0.11748480  1
  Li  Li476  1  0.86677860  0.18539160  0.31748480  1
  Li  Li477  1  0.86677860  0.18539160  0.51748480  1
  Li  Li478  1  0.86677860  0.18539160  0.71748480  1
  Li  Li479  1  0.86677860  0.18539160  0.91748480  1
  Li  Li480  1  0.86677860  0.38539160  0.11748480  1
  Li  Li481  1  0.86677860  0.38539160  0.31748480  1
  Li  Li482  1  0.86677860  0.38539160  0.51748480  1
  Li  Li483  1  0.86677860  0.38539160  0.71748480  1
  Li  Li484  1  0.86677860  0.38539160  0.91748480  1
  Li  Li485  1  0.86677860  0.58539160  0.11748480  1
  Li  Li486  1  0.86677860  0.58539160  0.31748480  1
  Li  Li487  1  0.86677860  0.58539160  0.51748480  1
  Li  Li488  1  0.86677860  0.58539160  0.71748480  1
  Li  Li489  1  0.86677860  0.58539160  0.91748480  1
  Li  Li490  1  0.86677860  0.78539160  0.11748480  1
  Li  Li491  1  0.86677860  0.78539160  0.31748480  1
  Li  Li492  1  0.86677860  0.78539160  0.51748480  1
  Li  Li493  1  0.86677860  0.78539160  0.71748480  1
  Li  Li494  1  0.86677860  0.78539160  0.91748480  1
  Li  Li495  1  0.86677860  0.98539160  0.11748480  1
  Li  Li496  1  0.86677860  0.98539160  0.31748480  1
  Li  Li497  1  0.86677860  0.98539160  0.51748480  1
  Li  Li498  1  0.86677860  0.98539160  0.71748480  1
  Li  Li499  1  0.86677860  0.98539160  0.91748480  1
  Li  Li500  1  0.11861280  0.13322140  0.05081820  1
  Li  Li501  1  0.11861280  0.13322140  0.25081820  1
  Li  Li502  1  0.11861280  0.13322140  0.45081820  1
  Li  Li503  1  0.11861280  0.13322140  0.65081820  1
  Li  Li504  1  0.11861280  0.13322140  0.85081820  1
  Li  Li505  1  0.11861280  0.33322140  0.05081820  1
  Li  Li506  1  0.11861280  0.33322140  0.25081820  1
  Li  Li507  1  0.11861280  0.33322140  0.45081820  1
  Li  Li508  1  0.11861280  0.33322140  0.65081820  1
  Li  Li509  1  0.11861280  0.33322140  0.85081820  1
  Li  Li510  1  0.11861280  0.53322140  0.05081820  1
  Li  Li511  1  0.11861280  0.53322140  0.25081820  1
  Li  Li512  1  0.11861280  0.53322140  0.45081820  1
  Li  Li513  1  0.11861280  0.53322140  0.65081820  1
  Li  Li514  1  0.11861280  0.53322140  0.85081820  1
  Li  Li515  1  0.11861280  0.73322140  0.05081820  1
  Li  Li516  1  0.11861280  0.73322140  0.25081820  1
  Li  Li517  1  0.11861280  0.73322140  0.45081820  1
  Li  Li518  1  0.11861280  0.73322140  0.65081820  1
  Li  Li519  1  0.11861280  0.73322140  0.85081820  1
  Li  Li520  1  0.11861280  0.93322140  0.05081820  1
  Li  Li521  1  0.11861280  0.93322140  0.25081820  1
  Li  Li522  1  0.11861280  0.93322140  0.45081820  1
  Li  Li523  1  0.11861280  0.93322140  0.65081820  1
  Li  Li524  1  0.11861280  0.93322140  0.85081820  1
  Li  Li525  1  0.31861280  0.13322140  0.05081820  1
  Li  Li526  1  0.31861280  0.13322140  0.25081820  1
  Li  Li527  1  0.31861280  0.13322140  0.45081820  1
  Li  Li528  1  0.31861280  0.13322140  0.65081820  1
  Li  Li529  1  0.31861280  0.13322140  0.85081820  1
  Li  Li530  1  0.31861280  0.33322140  0.05081820  1
  Li  Li531  1  0.31861280  0.33322140  0.25081820  1
  Li  Li532  1  0.31861280  0.33322140  0.45081820  1
  Li  Li533  1  0.31861280  0.33322140  0.65081820  1
  Li  Li534  1  0.31861280  0.33322140  0.85081820  1
  Li  Li535  1  0.31861280  0.53322140  0.05081820  1
  Li  Li536  1  0.31861280  0.53322140  0.25081820  1
  Li  Li537  1  0.31861280  0.53322140  0.45081820  1
  Li  Li538  1  0.31861280  0.53322140  0.65081820  1
  Li  Li539  1  0.31861280  0.53322140  0.85081820  1
  Li  Li540  1  0.31861280  0.73322140  0.05081820  1
  Li  Li541  1  0.31861280  0.73322140  0.25081820  1
  Li  Li542  1  0.31861280  0.73322140  0.45081820  1
  Li  Li543  1  0.31861280  0.73322140  0.65081820  1
  Li  Li544  1  0.31861280  0.73322140  0.85081820  1
  Li  Li545  1  0.31861280  0.93322140  0.05081820  1
  Li  Li546  1  0.31861280  0.93322140  0.25081820  1
  Li  Li547  1  0.31861280  0.93322140  0.45081820  1
  Li  Li548  1  0.31861280  0.93322140  0.65081820  1
  Li  Li549  1  0.31861280  0.93322140  0.85081820  1
  Li  Li550  1  0.51861280  0.13322140  0.05081820  1
  Li  Li551  1  0.51861280  0.13322140  0.25081820  1
  Li  Li552  1  0.51861280  0.13322140  0.45081820  1
  Li  Li553  1  0.51861280  0.13322140  0.65081820  1
  Li  Li554  1  0.51861280  0.13322140  0.85081820  1
  Li  Li555  1  0.51861280  0.33322140  0.05081820  1
  Li  Li556  1  0.51861280  0.33322140  0.25081820  1
  Li  Li557  1  0.51861280  0.33322140  0.45081820  1
  Li  Li558  1  0.51861280  0.33322140  0.65081820  1
  Li  Li559  1  0.51861280  0.33322140  0.85081820  1
  Li  Li560  1  0.51861280  0.53322140  0.05081820  1
  Li  Li561  1  0.51861280  0.53322140  0.25081820  1
  Li  Li562  1  0.51861280  0.53322140  0.45081820  1
  Li  Li563  1  0.51861280  0.53322140  0.65081820  1
  Li  Li564  1  0.51861280  0.53322140  0.85081820  1
  Li  Li565  1  0.51861280  0.73322140  0.05081820  1
  Li  Li566  1  0.51861280  0.73322140  0.25081820  1
  Li  Li567  1  0.51861280  0.73322140  0.45081820  1
  Li  Li568  1  0.51861280  0.73322140  0.65081820  1
  Li  Li569  1  0.51861280  0.73322140  0.85081820  1
  Li  Li570  1  0.51861280  0.93322140  0.05081820  1
  Li  Li571  1  0.51861280  0.93322140  0.25081820  1
  Li  Li572  1  0.51861280  0.93322140  0.45081820  1
  Li  Li573  1  0.51861280  0.93322140  0.65081820  1
  Li  Li574  1  0.51861280  0.93322140  0.85081820  1
  Li  Li575  1  0.71861280  0.13322140  0.05081820  1
  Li  Li576  1  0.71861280  0.13322140  0.25081820  1
  Li  Li577  1  0.71861280  0.13322140  0.45081820  1
  Li  Li578  1  0.71861280  0.13322140  0.65081820  1
  Li  Li579  1  0.71861280  0.13322140  0.85081820  1
  Li  Li580  1  0.71861280  0.33322140  0.05081820  1
  Li  Li581  1  0.71861280  0.33322140  0.25081820  1
  Li  Li582  1  0.71861280  0.33322140  0.45081820  1
  Li  Li583  1  0.71861280  0.33322140  0.65081820  1
  Li  Li584  1  0.71861280  0.33322140  0.85081820  1
  Li  Li585  1  0.71861280  0.53322140  0.05081820  1
  Li  Li586  1  0.71861280  0.53322140  0.25081820  1
  Li  Li587  1  0.71861280  0.53322140  0.45081820  1
  Li  Li588  1  0.71861280  0.53322140  0.65081820  1
  Li  Li589  1  0.71861280  0.53322140  0.85081820  1
  Li  Li590  1  0.71861280  0.73322140  0.05081820  1
  Li  Li591  1  0.71861280  0.73322140  0.25081820  1
  Li  Li592  1  0.71861280  0.73322140  0.45081820  1
  Li  Li593  1  0.71861280  0.73322140  0.65081820  1
  Li  Li594  1  0.71861280  0.73322140  0.85081820  1
  Li  Li595  1  0.71861280  0.93322140  0.05081820  1
  Li  Li596  1  0.71861280  0.93322140  0.25081820  1
  Li  Li597  1  0.71861280  0.93322140  0.45081820  1
  Li  Li598  1  0.71861280  0.93322140  0.65081820  1
  Li  Li599  1  0.71861280  0.93322140  0.85081820  1
  Li  Li600  1  0.91861280  0.13322140  0.05081820  1
  Li  Li601  1  0.91861280  0.13322140  0.25081820  1
  Li  Li602  1  0.91861280  0.13322140  0.45081820  1
  Li  Li603  1  0.91861280  0.13322140  0.65081820  1
  Li  Li604  1  0.91861280  0.13322140  0.85081820  1
  Li  Li605  1  0.91861280  0.33322140  0.05081820  1
  Li  Li606  1  0.91861280  0.33322140  0.25081820  1
  Li  Li607  1  0.91861280  0.33322140  0.45081820  1
  Li  Li608  1  0.91861280  0.33322140  0.65081820  1
  Li  Li609  1  0.91861280  0.33322140  0.85081820  1
  Li  Li610  1  0.91861280  0.53322140  0.05081820  1
  Li  Li611  1  0.91861280  0.53322140  0.25081820  1
  Li  Li612  1  0.91861280  0.53322140  0.45081820  1
  Li  Li613  1  0.91861280  0.53322140  0.65081820  1
  Li  Li614  1  0.91861280  0.53322140  0.85081820  1
  Li  Li615  1  0.91861280  0.73322140  0.05081820  1
  Li  Li616  1  0.91861280  0.73322140  0.25081820  1
  Li  Li617  1  0.91861280  0.73322140  0.45081820  1
  Li  Li618  1  0.91861280  0.73322140  0.65081820  1
  Li  Li619  1  0.91861280  0.73322140  0.85081820  1
  Li  Li620  1  0.91861280  0.93322140  0.05081820  1
  Li  Li621  1  0.91861280  0.93322140  0.25081820  1
  Li  Li622  1  0.91861280  0.93322140  0.45081820  1
  Li  Li623  1  0.91861280  0.93322140  0.65081820  1
  Li  Li624  1  0.91861280  0.93322140  0.85081820  1
  Li  Li625  1  0.01460840  0.08138720  0.18415160  1
  Li  Li626  1  0.01460840  0.08138720  0.38415160  1
  Li  Li627  1  0.01460840  0.08138720  0.58415160  1
  Li  Li628  1  0.01460840  0.08138720  0.78415160  1
  Li  Li629  1  0.01460840  0.08138720  0.98415160  1
  Li  Li630  1  0.01460840  0.28138720  0.18415160  1
  Li  Li631  1  0.01460840  0.28138720  0.38415160  1
  Li  Li632  1  0.01460840  0.28138720  0.58415160  1
  Li  Li633  1  0.01460840  0.28138720  0.78415160  1
  Li  Li634  1  0.01460840  0.28138720  0.98415160  1
  Li  Li635  1  0.01460840  0.48138720  0.18415160  1
  Li  Li636  1  0.01460840  0.48138720  0.38415160  1
  Li  Li637  1  0.01460840  0.48138720  0.58415160  1
  Li  Li638  1  0.01460840  0.48138720  0.78415160  1
  Li  Li639  1  0.01460840  0.48138720  0.98415160  1
  Li  Li640  1  0.01460840  0.68138720  0.18415160  1
  Li  Li641  1  0.01460840  0.68138720  0.38415160  1
  Li  Li642  1  0.01460840  0.68138720  0.58415160  1
  Li  Li643  1  0.01460840  0.68138720  0.78415160  1
  Li  Li644  1  0.01460840  0.68138720  0.98415160  1
  Li  Li645  1  0.01460840  0.88138720  0.18415160  1
  Li  Li646  1  0.01460840  0.88138720  0.38415160  1
  Li  Li647  1  0.01460840  0.88138720  0.58415160  1
  Li  Li648  1  0.01460840  0.88138720  0.78415160  1
  Li  Li649  1  0.01460840  0.88138720  0.98415160  1
  Li  Li650  1  0.21460840  0.08138720  0.18415160  1
  Li  Li651  1  0.21460840  0.08138720  0.38415160  1
  Li  Li652  1  0.21460840  0.08138720  0.58415160  1
  Li  Li653  1  0.21460840  0.08138720  0.78415160  1
  Li  Li654  1  0.21460840  0.08138720  0.98415160  1
  Li  Li655  1  0.21460840  0.28138720  0.18415160  1
  Li  Li656  1  0.21460840  0.28138720  0.38415160  1
  Li  Li657  1  0.21460840  0.28138720  0.58415160  1
  Li  Li658  1  0.21460840  0.28138720  0.78415160  1
  Li  Li659  1  0.21460840  0.28138720  0.98415160  1
  Li  Li660  1  0.21460840  0.48138720  0.18415160  1
  Li  Li661  1  0.21460840  0.48138720  0.38415160  1
  Li  Li662  1  0.21460840  0.48138720  0.58415160  1
  Li  Li663  1  0.21460840  0.48138720  0.78415160  1
  Li  Li664  1  0.21460840  0.48138720  0.98415160  1
  Li  Li665  1  0.21460840  0.68138720  0.18415160  1
  Li  Li666  1  0.21460840  0.68138720  0.38415160  1
  Li  Li667  1  0.21460840  0.68138720  0.58415160  1
  Li  Li668  1  0.21460840  0.68138720  0.78415160  1
  Li  Li669  1  0.21460840  0.68138720  0.98415160  1
  Li  Li670  1  0.21460840  0.88138720  0.18415160  1
  Li  Li671  1  0.21460840  0.88138720  0.38415160  1
  Li  Li672  1  0.21460840  0.88138720  0.58415160  1
  Li  Li673  1  0.21460840  0.88138720  0.78415160  1
  Li  Li674  1  0.21460840  0.88138720  0.98415160  1
  Li  Li675  1  0.41460840  0.08138720  0.18415160  1
  Li  Li676  1  0.41460840  0.08138720  0.38415160  1
  Li  Li677  1  0.41460840  0.08138720  0.58415160  1
  Li  Li678  1  0.41460840  0.08138720  0.78415160  1
  Li  Li679  1  0.41460840  0.08138720  0.98415160  1
  Li  Li680  1  0.41460840  0.28138720  0.18415160  1
  Li  Li681  1  0.41460840  0.28138720  0.38415160  1
  Li  Li682  1  0.41460840  0.28138720  0.58415160  1
  Li  Li683  1  0.41460840  0.28138720  0.78415160  1
  Li  Li684  1  0.41460840  0.28138720  0.98415160  1
  Li  Li685  1  0.41460840  0.48138720  0.18415160  1
  Li  Li686  1  0.41460840  0.48138720  0.38415160  1
  Li  Li687  1  0.41460840  0.48138720  0.58415160  1
  Li  Li688  1  0.41460840  0.48138720  0.78415160  1
  Li  Li689  1  0.41460840  0.48138720  0.98415160  1
  Li  Li690  1  0.41460840  0.68138720  0.18415160  1
  Li  Li691  1  0.41460840  0.68138720  0.38415160  1
  Li  Li692  1  0.41460840  0.68138720  0.58415160  1
  Li  Li693  1  0.41460840  0.68138720  0.78415160  1
  Li  Li694  1  0.41460840  0.68138720  0.98415160  1
  Li  Li695  1  0.41460840  0.88138720  0.18415160  1
  Li  Li696  1  0.41460840  0.88138720  0.38415160  1
  Li  Li697  1  0.41460840  0.88138720  0.58415160  1
  Li  Li698  1  0.41460840  0.88138720  0.78415160  1
  Li  Li699  1  0.41460840  0.88138720  0.98415160  1
  Li  Li700  1  0.61460840  0.08138720  0.18415160  1
  Li  Li701  1  0.61460840  0.08138720  0.38415160  1
  Li  Li702  1  0.61460840  0.08138720  0.58415160  1
  Li  Li703  1  0.61460840  0.08138720  0.78415160  1
  Li  Li704  1  0.61460840  0.08138720  0.98415160  1
  Li  Li705  1  0.61460840  0.28138720  0.18415160  1
  Li  Li706  1  0.61460840  0.28138720  0.38415160  1
  Li  Li707  1  0.61460840  0.28138720  0.58415160  1
  Li  Li708  1  0.61460840  0.28138720  0.78415160  1
  Li  Li709  1  0.61460840  0.28138720  0.98415160  1
  Li  Li710  1  0.61460840  0.48138720  0.18415160  1
  Li  Li711  1  0.61460840  0.48138720  0.38415160  1
  Li  Li712  1  0.61460840  0.48138720  0.58415160  1
  Li  Li713  1  0.61460840  0.48138720  0.78415160  1
  Li  Li714  1  0.61460840  0.48138720  0.98415160  1
  Li  Li715  1  0.61460840  0.68138720  0.18415160  1
  Li  Li716  1  0.61460840  0.68138720  0.38415160  1
  Li  Li717  1  0.61460840  0.68138720  0.58415160  1
  Li  Li718  1  0.61460840  0.68138720  0.78415160  1
  Li  Li719  1  0.61460840  0.68138720  0.98415160  1
  Li  Li720  1  0.61460840  0.88138720  0.18415160  1
  Li  Li721  1  0.61460840  0.88138720  0.38415160  1
  Li  Li722  1  0.61460840  0.88138720  0.58415160  1
  Li  Li723  1  0.61460840  0.88138720  0.78415160  1
  Li  Li724  1  0.61460840  0.88138720  0.98415160  1
  Li  Li725  1  0.81460840  0.08138720  0.18415160  1
  Li  Li726  1  0.81460840  0.08138720  0.38415160  1
  Li  Li727  1  0.81460840  0.08138720  0.58415160  1
  Li  Li728  1  0.81460840  0.08138720  0.78415160  1
  Li  Li729  1  0.81460840  0.08138720  0.98415160  1
  Li  Li730  1  0.81460840  0.28138720  0.18415160  1
  Li  Li731  1  0.81460840  0.28138720  0.38415160  1
  Li  Li732  1  0.81460840  0.28138720  0.58415160  1
  Li  Li733  1  0.81460840  0.28138720  0.78415160  1
  Li  Li734  1  0.81460840  0.28138720  0.98415160  1
  Li  Li735  1  0.81460840  0.48138720  0.18415160  1
  Li  Li736  1  0.81460840  0.48138720  0.38415160  1
  Li  Li737  1  0.81460840  0.48138720  0.58415160  1
  Li  Li738  1  0.81460840  0.48138720  0.78415160  1
  Li  Li739  1  0.81460840  0.48138720  0.98415160  1
  Li  Li740  1  0.81460840  0.68138720  0.18415160  1
  Li  Li741  1  0.81460840  0.68138720  0.38415160  1
  Li  Li742  1  0.81460840  0.68138720  0.58415160  1
  Li  Li743  1  0.81460840  0.68138720  0.78415160  1
  Li  Li744  1  0.81460840  0.68138720  0.98415160  1
  Li  Li745  1  0.81460840  0.88138720  0.18415160  1
  Li  Li746  1  0.81460840  0.88138720  0.38415160  1
  Li  Li747  1  0.81460840  0.88138720  0.58415160  1
  Li  Li748  1  0.81460840  0.88138720  0.78415160  1
  Li  Li749  1  0.81460840  0.88138720  0.98415160  1
  Eu  Eu750  1  0.00000000  0.08423240  0.03333340  1
  Eu  Eu751  1  0.00000000  0.08423240  0.23333340  1
  Eu  Eu752  1  0.00000000  0.08423240  0.43333340  1
  Eu  Eu753  1  0.00000000  0.08423240  0.63333340  1
  Eu  Eu754  1  0.00000000  0.08423240  0.83333340  1
  Eu  Eu755  1  0.00000000  0.28423240  0.03333340  1
  Eu  Eu756  1  0.00000000  0.28423240  0.23333340  1
  Eu  Eu757  1  0.00000000  0.28423240  0.43333340  1
  Eu  Eu758  1  0.00000000  0.28423240  0.63333340  1
  Eu  Eu759  1  0.00000000  0.28423240  0.83333340  1
  Eu  Eu760  1  0.00000000  0.48423240  0.03333340  1
  Eu  Eu761  1  0.00000000  0.48423240  0.23333340  1
  Eu  Eu762  1  0.00000000  0.48423240  0.43333340  1
  Eu  Eu763  1  0.00000000  0.48423240  0.63333340  1
  Eu  Eu764  1  0.00000000  0.48423240  0.83333340  1
  Eu  Eu765  1  0.00000000  0.68423240  0.03333340  1
  Eu  Eu766  1  0.00000000  0.68423240  0.23333340  1
  Eu  Eu767  1  0.00000000  0.68423240  0.43333340  1
  Eu  Eu768  1  0.00000000  0.68423240  0.63333340  1
  Eu  Eu769  1  0.00000000  0.68423240  0.83333340  1
  Eu  Eu770  1  0.00000000  0.88423240  0.03333340  1
  Eu  Eu771  1  0.00000000  0.88423240  0.23333340  1
  Eu  Eu772  1  0.00000000  0.88423240  0.43333340  1
  Eu  Eu773  1  0.00000000  0.88423240  0.63333340  1
  Eu  Eu774  1  0.00000000  0.88423240  0.83333340  1
  Eu  Eu775  1  0.20000000  0.08423240  0.03333340  1
  Eu  Eu776  1  0.20000000  0.08423240  0.23333340  1
  Eu  Eu777  1  0.20000000  0.08423240  0.43333340  1
  Eu  Eu778  1  0.20000000  0.08423240  0.63333340  1
  Eu  Eu779  1  0.20000000  0.08423240  0.83333340  1
  Eu  Eu780  1  0.20000000  0.28423240  0.03333340  1
  Eu  Eu781  1  0.20000000  0.28423240  0.23333340  1
  Eu  Eu782  1  0.20000000  0.28423240  0.43333340  1
  Eu  Eu783  1  0.20000000  0.28423240  0.63333340  1
  Eu  Eu784  1  0.20000000  0.28423240  0.83333340  1
  Eu  Eu785  1  0.20000000  0.48423240  0.03333340  1
  Eu  Eu786  1  0.20000000  0.48423240  0.23333340  1
  Eu  Eu787  1  0.20000000  0.48423240  0.43333340  1
  Eu  Eu788  1  0.20000000  0.48423240  0.63333340  1
  Eu  Eu789  1  0.20000000  0.48423240  0.83333340  1
  Eu  Eu790  1  0.20000000  0.68423240  0.03333340  1
  Eu  Eu791  1  0.20000000  0.68423240  0.23333340  1
  Eu  Eu792  1  0.20000000  0.68423240  0.43333340  1
  Eu  Eu793  1  0.20000000  0.68423240  0.63333340  1
  Eu  Eu794  1  0.20000000  0.68423240  0.83333340  1
  Eu  Eu795  1  0.20000000  0.88423240  0.03333340  1
  Eu  Eu796  1  0.20000000  0.88423240  0.23333340  1
  Eu  Eu797  1  0.20000000  0.88423240  0.43333340  1
  Eu  Eu798  1  0.20000000  0.88423240  0.63333340  1
  Eu  Eu799  1  0.20000000  0.88423240  0.83333340  1
  Eu  Eu800  1  0.40000000  0.08423240  0.03333340  1
  Eu  Eu801  1  0.40000000  0.08423240  0.23333340  1
  Eu  Eu802  1  0.40000000  0.08423240  0.43333340  1
  Eu  Eu803  1  0.40000000  0.08423240  0.63333340  1
  Eu  Eu804  1  0.40000000  0.08423240  0.83333340  1
  Eu  Eu805  1  0.40000000  0.28423240  0.03333340  1
  Eu  Eu806  1  0.40000000  0.28423240  0.23333340  1
  Eu  Eu807  1  0.40000000  0.28423240  0.43333340  1
  Eu  Eu808  1  0.40000000  0.28423240  0.63333340  1
  Eu  Eu809  1  0.40000000  0.28423240  0.83333340  1
  Eu  Eu810  1  0.40000000  0.48423240  0.03333340  1
  Eu  Eu811  1  0.40000000  0.48423240  0.23333340  1
  Eu  Eu812  1  0.40000000  0.48423240  0.43333340  1
  Eu  Eu813  1  0.40000000  0.48423240  0.63333340  1
  Eu  Eu814  1  0.40000000  0.48423240  0.83333340  1
  Eu  Eu815  1  0.40000000  0.68423240  0.03333340  1
  Eu  Eu816  1  0.40000000  0.68423240  0.23333340  1
  Eu  Eu817  1  0.40000000  0.68423240  0.43333340  1
  Eu  Eu818  1  0.40000000  0.68423240  0.63333340  1
  Eu  Eu819  1  0.40000000  0.68423240  0.83333340  1
  Eu  Eu820  1  0.40000000  0.88423240  0.03333340  1
  Eu  Eu821  1  0.40000000  0.88423240  0.23333340  1
  Eu  Eu822  1  0.40000000  0.88423240  0.43333340  1
  Eu  Eu823  1  0.40000000  0.88423240  0.63333340  1
  Eu  Eu824  1  0.40000000  0.88423240  0.83333340  1
  Eu  Eu825  1  0.60000000  0.08423240  0.03333340  1
  Eu  Eu826  1  0.60000000  0.08423240  0.23333340  1
  Eu  Eu827  1  0.60000000  0.08423240  0.43333340  1
  Eu  Eu828  1  0.60000000  0.08423240  0.63333340  1
  Eu  Eu829  1  0.60000000  0.08423240  0.83333340  1
  Eu  Eu830  1  0.60000000  0.28423240  0.03333340  1
  Eu  Eu831  1  0.60000000  0.28423240  0.23333340  1
  Eu  Eu832  1  0.60000000  0.28423240  0.43333340  1
  Eu  Eu833  1  0.60000000  0.28423240  0.63333340  1
  Eu  Eu834  1  0.60000000  0.28423240  0.83333340  1
  Eu  Eu835  1  0.60000000  0.48423240  0.03333340  1
  Eu  Eu836  1  0.60000000  0.48423240  0.23333340  1
  Eu  Eu837  1  0.60000000  0.48423240  0.43333340  1
  Eu  Eu838  1  0.60000000  0.48423240  0.63333340  1
  Eu  Eu839  1  0.60000000  0.48423240  0.83333340  1
  Eu  Eu840  1  0.60000000  0.68423240  0.03333340  1
  Eu  Eu841  1  0.60000000  0.68423240  0.23333340  1
  Eu  Eu842  1  0.60000000  0.68423240  0.43333340  1
  Eu  Eu843  1  0.60000000  0.68423240  0.63333340  1
  Eu  Eu844  1  0.60000000  0.68423240  0.83333340  1
  Eu  Eu845  1  0.60000000  0.88423240  0.03333340  1
  Eu  Eu846  1  0.60000000  0.88423240  0.23333340  1
  Eu  Eu847  1  0.60000000  0.88423240  0.43333340  1
  Eu  Eu848  1  0.60000000  0.88423240  0.63333340  1
  Eu  Eu849  1  0.60000000  0.88423240  0.83333340  1
  Eu  Eu850  1  0.80000000  0.08423240  0.03333340  1
  Eu  Eu851  1  0.80000000  0.08423240  0.23333340  1
  Eu  Eu852  1  0.80000000  0.08423240  0.43333340  1
  Eu  Eu853  1  0.80000000  0.08423240  0.63333340  1
  Eu  Eu854  1  0.80000000  0.08423240  0.83333340  1
  Eu  Eu855  1  0.80000000  0.28423240  0.03333340  1
  Eu  Eu856  1  0.80000000  0.28423240  0.23333340  1
  Eu  Eu857  1  0.80000000  0.28423240  0.43333340  1
  Eu  Eu858  1  0.80000000  0.28423240  0.63333340  1
  Eu  Eu859  1  0.80000000  0.28423240  0.83333340  1
  Eu  Eu860  1  0.80000000  0.48423240  0.03333340  1
  Eu  Eu861  1  0.80000000  0.48423240  0.23333340  1
  Eu  Eu862  1  0.80000000  0.48423240  0.43333340  1
  Eu  Eu863  1  0.80000000  0.48423240  0.63333340  1
  Eu  Eu864  1  0.80000000  0.48423240  0.83333340  1
  Eu  Eu865  1  0.80000000  0.68423240  0.03333340  1
  Eu  Eu866  1  0.80000000  0.68423240  0.23333340  1
  Eu  Eu867  1  0.80000000  0.68423240  0.43333340  1
  Eu  Eu868  1  0.80000000  0.68423240  0.63333340  1
  Eu  Eu869  1  0.80000000  0.68423240  0.83333340  1
  Eu  Eu870  1  0.80000000  0.88423240  0.03333340  1
  Eu  Eu871  1  0.80000000  0.88423240  0.23333340  1
  Eu  Eu872  1  0.80000000  0.88423240  0.43333340  1
  Eu  Eu873  1  0.80000000  0.88423240  0.63333340  1
  Eu  Eu874  1  0.80000000  0.88423240  0.83333340  1
  Eu  Eu875  1  0.08423240  0.00000000  0.16666660  1
  Eu  Eu876  1  0.08423240  0.00000000  0.36666660  1
  Eu  Eu877  1  0.08423240  0.00000000  0.56666660  1
  Eu  Eu878  1  0.08423240  0.00000000  0.76666660  1
  Eu  Eu879  1  0.08423240  0.00000000  0.96666660  1
  Eu  Eu880  1  0.08423240  0.20000000  0.16666660  1
  Eu  Eu881  1  0.08423240  0.20000000  0.36666660  1
  Eu  Eu882  1  0.08423240  0.20000000  0.56666660  1
  Eu  Eu883  1  0.08423240  0.20000000  0.76666660  1
  Eu  Eu884  1  0.08423240  0.20000000  0.96666660  1
  Eu  Eu885  1  0.08423240  0.40000000  0.16666660  1
  Eu  Eu886  1  0.08423240  0.40000000  0.36666660  1
  Eu  Eu887  1  0.08423240  0.40000000  0.56666660  1
  Eu  Eu888  1  0.08423240  0.40000000  0.76666660  1
  Eu  Eu889  1  0.08423240  0.40000000  0.96666660  1
  Eu  Eu890  1  0.08423240  0.60000000  0.16666660  1
  Eu  Eu891  1  0.08423240  0.60000000  0.36666660  1
  Eu  Eu892  1  0.08423240  0.60000000  0.56666660  1
  Eu  Eu893  1  0.08423240  0.60000000  0.76666660  1
  Eu  Eu894  1  0.08423240  0.60000000  0.96666660  1
  Eu  Eu895  1  0.08423240  0.80000000  0.16666660  1
  Eu  Eu896  1  0.08423240  0.80000000  0.36666660  1
  Eu  Eu897  1  0.08423240  0.80000000  0.56666660  1
  Eu  Eu898  1  0.08423240  0.80000000  0.76666660  1
  Eu  Eu899  1  0.08423240  0.80000000  0.96666660  1
  Eu  Eu900  1  0.28423240  0.00000000  0.16666660  1
  Eu  Eu901  1  0.28423240  0.00000000  0.36666660  1
  Eu  Eu902  1  0.28423240  0.00000000  0.56666660  1
  Eu  Eu903  1  0.28423240  0.00000000  0.76666660  1
  Eu  Eu904  1  0.28423240  0.00000000  0.96666660  1
  Eu  Eu905  1  0.28423240  0.20000000  0.16666660  1
  Eu  Eu906  1  0.28423240  0.20000000  0.36666660  1
  Eu  Eu907  1  0.28423240  0.20000000  0.56666660  1
  Eu  Eu908  1  0.28423240  0.20000000  0.76666660  1
  Eu  Eu909  1  0.28423240  0.20000000  0.96666660  1
  Eu  Eu910  1  0.28423240  0.40000000  0.16666660  1
  Eu  Eu911  1  0.28423240  0.40000000  0.36666660  1
  Eu  Eu912  1  0.28423240  0.40000000  0.56666660  1
  Eu  Eu913  1  0.28423240  0.40000000  0.76666660  1
  Eu  Eu914  1  0.28423240  0.40000000  0.96666660  1
  Eu  Eu915  1  0.28423240  0.60000000  0.16666660  1
  Eu  Eu916  1  0.28423240  0.60000000  0.36666660  1
  Eu  Eu917  1  0.28423240  0.60000000  0.56666660  1
  Eu  Eu918  1  0.28423240  0.60000000  0.76666660  1
  Eu  Eu919  1  0.28423240  0.60000000  0.96666660  1
  Eu  Eu920  1  0.28423240  0.80000000  0.16666660  1
  Eu  Eu921  1  0.28423240  0.80000000  0.36666660  1
  Eu  Eu922  1  0.28423240  0.80000000  0.56666660  1
  Eu  Eu923  1  0.28423240  0.80000000  0.76666660  1
  Eu  Eu924  1  0.28423240  0.80000000  0.96666660  1
  Eu  Eu925  1  0.48423240  0.00000000  0.16666660  1
  Eu  Eu926  1  0.48423240  0.00000000  0.36666660  1
  Eu  Eu927  1  0.48423240  0.00000000  0.56666660  1
  Eu  Eu928  1  0.48423240  0.00000000  0.76666660  1
  Eu  Eu929  1  0.48423240  0.00000000  0.96666660  1
  Eu  Eu930  1  0.48423240  0.20000000  0.16666660  1
  Eu  Eu931  1  0.48423240  0.20000000  0.36666660  1
  Eu  Eu932  1  0.48423240  0.20000000  0.56666660  1
  Eu  Eu933  1  0.48423240  0.20000000  0.76666660  1
  Eu  Eu934  1  0.48423240  0.20000000  0.96666660  1
  Eu  Eu935  1  0.48423240  0.40000000  0.16666660  1
  Eu  Eu936  1  0.48423240  0.40000000  0.36666660  1
  Eu  Eu937  1  0.48423240  0.40000000  0.56666660  1
  Eu  Eu938  1  0.48423240  0.40000000  0.76666660  1
  Eu  Eu939  1  0.48423240  0.40000000  0.96666660  1
  Eu  Eu940  1  0.48423240  0.60000000  0.16666660  1
  Eu  Eu941  1  0.48423240  0.60000000  0.36666660  1
  Eu  Eu942  1  0.48423240  0.60000000  0.56666660  1
  Eu  Eu943  1  0.48423240  0.60000000  0.76666660  1
  Eu  Eu944  1  0.48423240  0.60000000  0.96666660  1
  Eu  Eu945  1  0.48423240  0.80000000  0.16666660  1
  Eu  Eu946  1  0.48423240  0.80000000  0.36666660  1
  Eu  Eu947  1  0.48423240  0.80000000  0.56666660  1
  Eu  Eu948  1  0.48423240  0.80000000  0.76666660  1
  Eu  Eu949  1  0.48423240  0.80000000  0.96666660  1
  Eu  Eu950  1  0.68423240  0.00000000  0.16666660  1
  Eu  Eu951  1  0.68423240  0.00000000  0.36666660  1
  Eu  Eu952  1  0.68423240  0.00000000  0.56666660  1
  Eu  Eu953  1  0.68423240  0.00000000  0.76666660  1
  Eu  Eu954  1  0.68423240  0.00000000  0.96666660  1
  Eu  Eu955  1  0.68423240  0.20000000  0.16666660  1
  Eu  Eu956  1  0.68423240  0.20000000  0.36666660  1
  Eu  Eu957  1  0.68423240  0.20000000  0.56666660  1
  Eu  Eu958  1  0.68423240  0.20000000  0.76666660  1
  Eu  Eu959  1  0.68423240  0.20000000  0.96666660  1
  Eu  Eu960  1  0.68423240  0.40000000  0.16666660  1
  Eu  Eu961  1  0.68423240  0.40000000  0.36666660  1
  Eu  Eu962  1  0.68423240  0.40000000  0.56666660  1
  Eu  Eu963  1  0.68423240  0.40000000  0.76666660  1
  Eu  Eu964  1  0.68423240  0.40000000  0.96666660  1
  Eu  Eu965  1  0.68423240  0.60000000  0.16666660  1
  Eu  Eu966  1  0.68423240  0.60000000  0.36666660  1
  Eu  Eu967  1  0.68423240  0.60000000  0.56666660  1
  Eu  Eu968  1  0.68423240  0.60000000  0.76666660  1
  Eu  Eu969  1  0.68423240  0.60000000  0.96666660  1
  Eu  Eu970  1  0.68423240  0.80000000  0.16666660  1
  Eu  Eu971  1  0.68423240  0.80000000  0.36666660  1
  Eu  Eu972  1  0.68423240  0.80000000  0.56666660  1
  Eu  Eu973  1  0.68423240  0.80000000  0.76666660  1
  Eu  Eu974  1  0.68423240  0.80000000  0.96666660  1
  Eu  Eu975  1  0.88423240  0.00000000  0.16666660  1
  Eu  Eu976  1  0.88423240  0.00000000  0.36666660  1
  Eu  Eu977  1  0.88423240  0.00000000  0.56666660  1
  Eu  Eu978  1  0.88423240  0.00000000  0.76666660  1
  Eu  Eu979  1  0.88423240  0.00000000  0.96666660  1
  Eu  Eu980  1  0.88423240  0.20000000  0.16666660  1
  Eu  Eu981  1  0.88423240  0.20000000  0.36666660  1
  Eu  Eu982  1  0.88423240  0.20000000  0.56666660  1
  Eu  Eu983  1  0.88423240  0.20000000  0.76666660  1
  Eu  Eu984  1  0.88423240  0.20000000  0.96666660  1
  Eu  Eu985  1  0.88423240  0.40000000  0.16666660  1
  Eu  Eu986  1  0.88423240  0.40000000  0.36666660  1
  Eu  Eu987  1  0.88423240  0.40000000  0.56666660  1
  Eu  Eu988  1  0.88423240  0.40000000  0.76666660  1
  Eu  Eu989  1  0.88423240  0.40000000  0.96666660  1
  Eu  Eu990  1  0.88423240  0.60000000  0.16666660  1
  Eu  Eu991  1  0.88423240  0.60000000  0.36666660  1
  Eu  Eu992  1  0.88423240  0.60000000  0.56666660  1
  Eu  Eu993  1  0.88423240  0.60000000  0.76666660  1
  Eu  Eu994  1  0.88423240  0.60000000  0.96666660  1
  Eu  Eu995  1  0.88423240  0.80000000  0.16666660  1
  Eu  Eu996  1  0.88423240  0.80000000  0.36666660  1
  Eu  Eu997  1  0.88423240  0.80000000  0.56666660  1
  Eu  Eu998  1  0.88423240  0.80000000  0.76666660  1
  Eu  Eu999  1  0.88423240  0.80000000  0.96666660  1
  Eu  Eu1000  1  0.11576760  0.11576760  0.10000000  1
  Eu  Eu1001  1  0.11576760  0.11576760  0.30000000  1
  Eu  Eu1002  1  0.11576760  0.11576760  0.50000000  1
  Eu  Eu1003  1  0.11576760  0.11576760  0.70000000  1
  Eu  Eu1004  1  0.11576760  0.11576760  0.90000000  1
  Eu  Eu1005  1  0.11576760  0.31576760  0.10000000  1
  Eu  Eu1006  1  0.11576760  0.31576760  0.30000000  1
  Eu  Eu1007  1  0.11576760  0.31576760  0.50000000  1
  Eu  Eu1008  1  0.11576760  0.31576760  0.70000000  1
  Eu  Eu1009  1  0.11576760  0.31576760  0.90000000  1
  Eu  Eu1010  1  0.11576760  0.51576760  0.10000000  1
  Eu  Eu1011  1  0.11576760  0.51576760  0.30000000  1
  Eu  Eu1012  1  0.11576760  0.51576760  0.50000000  1
  Eu  Eu1013  1  0.11576760  0.51576760  0.70000000  1
  Eu  Eu1014  1  0.11576760  0.51576760  0.90000000  1
  Eu  Eu1015  1  0.11576760  0.71576760  0.10000000  1
  Eu  Eu1016  1  0.11576760  0.71576760  0.30000000  1
  Eu  Eu1017  1  0.11576760  0.71576760  0.50000000  1
  Eu  Eu1018  1  0.11576760  0.71576760  0.70000000  1
  Eu  Eu1019  1  0.11576760  0.71576760  0.90000000  1
  Eu  Eu1020  1  0.11576760  0.91576760  0.10000000  1
  Eu  Eu1021  1  0.11576760  0.91576760  0.30000000  1
  Eu  Eu1022  1  0.11576760  0.91576760  0.50000000  1
  Eu  Eu1023  1  0.11576760  0.91576760  0.70000000  1
  Eu  Eu1024  1  0.11576760  0.91576760  0.90000000  1
  Eu  Eu1025  1  0.31576760  0.11576760  0.10000000  1
  Eu  Eu1026  1  0.31576760  0.11576760  0.30000000  1
  Eu  Eu1027  1  0.31576760  0.11576760  0.50000000  1
  Eu  Eu1028  1  0.31576760  0.11576760  0.70000000  1
  Eu  Eu1029  1  0.31576760  0.11576760  0.90000000  1
  Eu  Eu1030  1  0.31576760  0.31576760  0.10000000  1
  Eu  Eu1031  1  0.31576760  0.31576760  0.30000000  1
  Eu  Eu1032  1  0.31576760  0.31576760  0.50000000  1
  Eu  Eu1033  1  0.31576760  0.31576760  0.70000000  1
  Eu  Eu1034  1  0.31576760  0.31576760  0.90000000  1
  Eu  Eu1035  1  0.31576760  0.51576760  0.10000000  1
  Eu  Eu1036  1  0.31576760  0.51576760  0.30000000  1
  Eu  Eu1037  1  0.31576760  0.51576760  0.50000000  1
  Eu  Eu1038  1  0.31576760  0.51576760  0.70000000  1
  Eu  Eu1039  1  0.31576760  0.51576760  0.90000000  1
  Eu  Eu1040  1  0.31576760  0.71576760  0.10000000  1
  Eu  Eu1041  1  0.31576760  0.71576760  0.30000000  1
  Eu  Eu1042  1  0.31576760  0.71576760  0.50000000  1
  Eu  Eu1043  1  0.31576760  0.71576760  0.70000000  1
  Eu  Eu1044  1  0.31576760  0.71576760  0.90000000  1
  Eu  Eu1045  1  0.31576760  0.91576760  0.10000000  1
  Eu  Eu1046  1  0.31576760  0.91576760  0.30000000  1
  Eu  Eu1047  1  0.31576760  0.91576760  0.50000000  1
  Eu  Eu1048  1  0.31576760  0.91576760  0.70000000  1
  Eu  Eu1049  1  0.31576760  0.91576760  0.90000000  1
  Eu  Eu1050  1  0.51576760  0.11576760  0.10000000  1
  Eu  Eu1051  1  0.51576760  0.11576760  0.30000000  1
  Eu  Eu1052  1  0.51576760  0.11576760  0.50000000  1
  Eu  Eu1053  1  0.51576760  0.11576760  0.70000000  1
  Eu  Eu1054  1  0.51576760  0.11576760  0.90000000  1
  Eu  Eu1055  1  0.51576760  0.31576760  0.10000000  1
  Eu  Eu1056  1  0.51576760  0.31576760  0.30000000  1
  Eu  Eu1057  1  0.51576760  0.31576760  0.50000000  1
  Eu  Eu1058  1  0.51576760  0.31576760  0.70000000  1
  Eu  Eu1059  1  0.51576760  0.31576760  0.90000000  1
  Eu  Eu1060  1  0.51576760  0.51576760  0.10000000  1
  Eu  Eu1061  1  0.51576760  0.51576760  0.30000000  1
  Eu  Eu1062  1  0.51576760  0.51576760  0.50000000  1
  Eu  Eu1063  1  0.51576760  0.51576760  0.70000000  1
  Eu  Eu1064  1  0.51576760  0.51576760  0.90000000  1
  Eu  Eu1065  1  0.51576760  0.71576760  0.10000000  1
  Eu  Eu1066  1  0.51576760  0.71576760  0.30000000  1
  Eu  Eu1067  1  0.51576760  0.71576760  0.50000000  1
  Eu  Eu1068  1  0.51576760  0.71576760  0.70000000  1
  Eu  Eu1069  1  0.51576760  0.71576760  0.90000000  1
  Eu  Eu1070  1  0.51576760  0.91576760  0.10000000  1
  Eu  Eu1071  1  0.51576760  0.91576760  0.30000000  1
  Eu  Eu1072  1  0.51576760  0.91576760  0.50000000  1
  Eu  Eu1073  1  0.51576760  0.91576760  0.70000000  1
  Eu  Eu1074  1  0.51576760  0.91576760  0.90000000  1
  Eu  Eu1075  1  0.71576760  0.11576760  0.10000000  1
  Eu  Eu1076  1  0.71576760  0.11576760  0.30000000  1
  Eu  Eu1077  1  0.71576760  0.11576760  0.50000000  1
  Eu  Eu1078  1  0.71576760  0.11576760  0.70000000  1
  Eu  Eu1079  1  0.71576760  0.11576760  0.90000000  1
  Eu  Eu1080  1  0.71576760  0.31576760  0.10000000  1
  Eu  Eu1081  1  0.71576760  0.31576760  0.30000000  1
  Eu  Eu1082  1  0.71576760  0.31576760  0.50000000  1
  Eu  Eu1083  1  0.71576760  0.31576760  0.70000000  1
  Eu  Eu1084  1  0.71576760  0.31576760  0.90000000  1
  Eu  Eu1085  1  0.71576760  0.51576760  0.10000000  1
  Eu  Eu1086  1  0.71576760  0.51576760  0.30000000  1
  Eu  Eu1087  1  0.71576760  0.51576760  0.50000000  1
  Eu  Eu1088  1  0.71576760  0.51576760  0.70000000  1
  Eu  Eu1089  1  0.71576760  0.51576760  0.90000000  1
  Eu  Eu1090  1  0.71576760  0.71576760  0.10000000  1
  Eu  Eu1091  1  0.71576760  0.71576760  0.30000000  1
  Eu  Eu1092  1  0.71576760  0.71576760  0.50000000  1
  Eu  Eu1093  1  0.71576760  0.71576760  0.70000000  1
  Eu  Eu1094  1  0.71576760  0.71576760  0.90000000  1
  Eu  Eu1095  1  0.71576760  0.91576760  0.10000000  1
  Eu  Eu1096  1  0.71576760  0.91576760  0.30000000  1
  Eu  Eu1097  1  0.71576760  0.91576760  0.50000000  1
  Eu  Eu1098  1  0.71576760  0.91576760  0.70000000  1
  Eu  Eu1099  1  0.71576760  0.91576760  0.90000000  1
  Eu  Eu1100  1  0.91576760  0.11576760  0.10000000  1
  Eu  Eu1101  1  0.91576760  0.11576760  0.30000000  1
  Eu  Eu1102  1  0.91576760  0.11576760  0.50000000  1
  Eu  Eu1103  1  0.91576760  0.11576760  0.70000000  1
  Eu  Eu1104  1  0.91576760  0.11576760  0.90000000  1
  Eu  Eu1105  1  0.91576760  0.31576760  0.10000000  1
  Eu  Eu1106  1  0.91576760  0.31576760  0.30000000  1
  Eu  Eu1107  1  0.91576760  0.31576760  0.50000000  1
  Eu  Eu1108  1  0.91576760  0.31576760  0.70000000  1
  Eu  Eu1109  1  0.91576760  0.31576760  0.90000000  1
  Eu  Eu1110  1  0.91576760  0.51576760  0.10000000  1
  Eu  Eu1111  1  0.91576760  0.51576760  0.30000000  1
  Eu  Eu1112  1  0.91576760  0.51576760  0.50000000  1
  Eu  Eu1113  1  0.91576760  0.51576760  0.70000000  1
  Eu  Eu1114  1  0.91576760  0.51576760  0.90000000  1
  Eu  Eu1115  1  0.91576760  0.71576760  0.10000000  1
  Eu  Eu1116  1  0.91576760  0.71576760  0.30000000  1
  Eu  Eu1117  1  0.91576760  0.71576760  0.50000000  1
  Eu  Eu1118  1  0.91576760  0.71576760  0.70000000  1
  Eu  Eu1119  1  0.91576760  0.71576760  0.90000000  1
  Eu  Eu1120  1  0.91576760  0.91576760  0.10000000  1
  Eu  Eu1121  1  0.91576760  0.91576760  0.30000000  1
  Eu  Eu1122  1  0.91576760  0.91576760  0.50000000  1
  Eu  Eu1123  1  0.91576760  0.91576760  0.70000000  1
  Eu  Eu1124  1  0.91576760  0.91576760  0.90000000  1
  Si  Si1125  1  0.14456280  0.14456280  0.00000000  1
  Si  Si1126  1  0.14456280  0.14456280  0.20000000  1
  Si  Si1127  1  0.14456280  0.14456280  0.40000000  1
  Si  Si1128  1  0.14456280  0.14456280  0.60000000  1
  Si  Si1129  1  0.14456280  0.14456280  0.80000000  1
  Si  Si1130  1  0.14456280  0.34456280  0.00000000  1
  Si  Si1131  1  0.14456280  0.34456280  0.20000000  1
  Si  Si1132  1  0.14456280  0.34456280  0.40000000  1
  Si  Si1133  1  0.14456280  0.34456280  0.60000000  1
  Si  Si1134  1  0.14456280  0.34456280  0.80000000  1
  Si  Si1135  1  0.14456280  0.54456280  0.00000000  1
  Si  Si1136  1  0.14456280  0.54456280  0.20000000  1
  Si  Si1137  1  0.14456280  0.54456280  0.40000000  1
  Si  Si1138  1  0.14456280  0.54456280  0.60000000  1
  Si  Si1139  1  0.14456280  0.54456280  0.80000000  1
  Si  Si1140  1  0.14456280  0.74456280  0.00000000  1
  Si  Si1141  1  0.14456280  0.74456280  0.20000000  1
  Si  Si1142  1  0.14456280  0.74456280  0.40000000  1
  Si  Si1143  1  0.14456280  0.74456280  0.60000000  1
  Si  Si1144  1  0.14456280  0.74456280  0.80000000  1
  Si  Si1145  1  0.14456280  0.94456280  0.00000000  1
  Si  Si1146  1  0.14456280  0.94456280  0.20000000  1
  Si  Si1147  1  0.14456280  0.94456280  0.40000000  1
  Si  Si1148  1  0.14456280  0.94456280  0.60000000  1
  Si  Si1149  1  0.14456280  0.94456280  0.80000000  1
  Si  Si1150  1  0.34456280  0.14456280  0.00000000  1
  Si  Si1151  1  0.34456280  0.14456280  0.20000000  1
  Si  Si1152  1  0.34456280  0.14456280  0.40000000  1
  Si  Si1153  1  0.34456280  0.14456280  0.60000000  1
  Si  Si1154  1  0.34456280  0.14456280  0.80000000  1
  Si  Si1155  1  0.34456280  0.34456280  0.00000000  1
  Si  Si1156  1  0.34456280  0.34456280  0.20000000  1
  Si  Si1157  1  0.34456280  0.34456280  0.40000000  1
  Si  Si1158  1  0.34456280  0.34456280  0.60000000  1
  Si  Si1159  1  0.34456280  0.34456280  0.80000000  1
  Si  Si1160  1  0.34456280  0.54456280  0.00000000  1
  Si  Si1161  1  0.34456280  0.54456280  0.20000000  1
  Si  Si1162  1  0.34456280  0.54456280  0.40000000  1
  Si  Si1163  1  0.34456280  0.54456280  0.60000000  1
  Si  Si1164  1  0.34456280  0.54456280  0.80000000  1
  Si  Si1165  1  0.34456280  0.74456280  0.00000000  1
  Si  Si1166  1  0.34456280  0.74456280  0.20000000  1
  Si  Si1167  1  0.34456280  0.74456280  0.40000000  1
  Si  Si1168  1  0.34456280  0.74456280  0.60000000  1
  Si  Si1169  1  0.34456280  0.74456280  0.80000000  1
  Si  Si1170  1  0.34456280  0.94456280  0.00000000  1
  Si  Si1171  1  0.34456280  0.94456280  0.20000000  1
  Si  Si1172  1  0.34456280  0.94456280  0.40000000  1
  Si  Si1173  1  0.34456280  0.94456280  0.60000000  1
  Si  Si1174  1  0.34456280  0.94456280  0.80000000  1
  Si  Si1175  1  0.54456280  0.14456280  0.00000000  1
  Si  Si1176  1  0.54456280  0.14456280  0.20000000  1
  Si  Si1177  1  0.54456280  0.14456280  0.40000000  1
  Si  Si1178  1  0.54456280  0.14456280  0.60000000  1
  Si  Si1179  1  0.54456280  0.14456280  0.80000000  1
  Si  Si1180  1  0.54456280  0.34456280  0.00000000  1
  Si  Si1181  1  0.54456280  0.34456280  0.20000000  1
  Si  Si1182  1  0.54456280  0.34456280  0.40000000  1
  Si  Si1183  1  0.54456280  0.34456280  0.60000000  1
  Si  Si1184  1  0.54456280  0.34456280  0.80000000  1
  Si  Si1185  1  0.54456280  0.54456280  0.00000000  1
  Si  Si1186  1  0.54456280  0.54456280  0.20000000  1
  Si  Si1187  1  0.54456280  0.54456280  0.40000000  1
  Si  Si1188  1  0.54456280  0.54456280  0.60000000  1
  Si  Si1189  1  0.54456280  0.54456280  0.80000000  1
  Si  Si1190  1  0.54456280  0.74456280  0.00000000  1
  Si  Si1191  1  0.54456280  0.74456280  0.20000000  1
  Si  Si1192  1  0.54456280  0.74456280  0.40000000  1
  Si  Si1193  1  0.54456280  0.74456280  0.60000000  1
  Si  Si1194  1  0.54456280  0.74456280  0.80000000  1
  Si  Si1195  1  0.54456280  0.94456280  0.00000000  1
  Si  Si1196  1  0.54456280  0.94456280  0.20000000  1
  Si  Si1197  1  0.54456280  0.94456280  0.40000000  1
  Si  Si1198  1  0.54456280  0.94456280  0.60000000  1
  Si  Si1199  1  0.54456280  0.94456280  0.80000000  1
  Si  Si1200  1  0.74456280  0.14456280  0.00000000  1
  Si  Si1201  1  0.74456280  0.14456280  0.20000000  1
  Si  Si1202  1  0.74456280  0.14456280  0.40000000  1
  Si  Si1203  1  0.74456280  0.14456280  0.60000000  1
  Si  Si1204  1  0.74456280  0.14456280  0.80000000  1
  Si  Si1205  1  0.74456280  0.34456280  0.00000000  1
  Si  Si1206  1  0.74456280  0.34456280  0.20000000  1
  Si  Si1207  1  0.74456280  0.34456280  0.40000000  1
  Si  Si1208  1  0.74456280  0.34456280  0.60000000  1
  Si  Si1209  1  0.74456280  0.34456280  0.80000000  1
  Si  Si1210  1  0.74456280  0.54456280  0.00000000  1
  Si  Si1211  1  0.74456280  0.54456280  0.20000000  1
  Si  Si1212  1  0.74456280  0.54456280  0.40000000  1
  Si  Si1213  1  0.74456280  0.54456280  0.60000000  1
  Si  Si1214  1  0.74456280  0.54456280  0.80000000  1
  Si  Si1215  1  0.74456280  0.74456280  0.00000000  1
  Si  Si1216  1  0.74456280  0.74456280  0.20000000  1
  Si  Si1217  1  0.74456280  0.74456280  0.40000000  1
  Si  Si1218  1  0.74456280  0.74456280  0.60000000  1
  Si  Si1219  1  0.74456280  0.74456280  0.80000000  1
  Si  Si1220  1  0.74456280  0.94456280  0.00000000  1
  Si  Si1221  1  0.74456280  0.94456280  0.20000000  1
  Si  Si1222  1  0.74456280  0.94456280  0.40000000  1
  Si  Si1223  1  0.74456280  0.94456280  0.60000000  1
  Si  Si1224  1  0.74456280  0.94456280  0.80000000  1
  Si  Si1225  1  0.94456280  0.14456280  0.00000000  1
  Si  Si1226  1  0.94456280  0.14456280  0.20000000  1
  Si  Si1227  1  0.94456280  0.14456280  0.40000000  1
  Si  Si1228  1  0.94456280  0.14456280  0.60000000  1
  Si  Si1229  1  0.94456280  0.14456280  0.80000000  1
  Si  Si1230  1  0.94456280  0.34456280  0.00000000  1
  Si  Si1231  1  0.94456280  0.34456280  0.20000000  1
  Si  Si1232  1  0.94456280  0.34456280  0.40000000  1
  Si  Si1233  1  0.94456280  0.34456280  0.60000000  1
  Si  Si1234  1  0.94456280  0.34456280  0.80000000  1
  Si  Si1235  1  0.94456280  0.54456280  0.00000000  1
  Si  Si1236  1  0.94456280  0.54456280  0.20000000  1
  Si  Si1237  1  0.94456280  0.54456280  0.40000000  1
  Si  Si1238  1  0.94456280  0.54456280  0.60000000  1
  Si  Si1239  1  0.94456280  0.54456280  0.80000000  1
  Si  Si1240  1  0.94456280  0.74456280  0.00000000  1
  Si  Si1241  1  0.94456280  0.74456280  0.20000000  1
  Si  Si1242  1  0.94456280  0.74456280  0.40000000  1
  Si  Si1243  1  0.94456280  0.74456280  0.60000000  1
  Si  Si1244  1  0.94456280  0.74456280  0.80000000  1
  Si  Si1245  1  0.94456280  0.94456280  0.00000000  1
  Si  Si1246  1  0.94456280  0.94456280  0.20000000  1
  Si  Si1247  1  0.94456280  0.94456280  0.40000000  1
  Si  Si1248  1  0.94456280  0.94456280  0.60000000  1
  Si  Si1249  1  0.94456280  0.94456280  0.80000000  1
  Si  Si1250  1  0.00000000  0.05543720  0.13333340  1
  Si  Si1251  1  0.00000000  0.05543720  0.33333340  1
  Si  Si1252  1  0.00000000  0.05543720  0.53333340  1
  Si  Si1253  1  0.00000000  0.05543720  0.73333340  1
  Si  Si1254  1  0.00000000  0.05543720  0.93333340  1
  Si  Si1255  1  0.00000000  0.25543720  0.13333340  1
  Si  Si1256  1  0.00000000  0.25543720  0.33333340  1
  Si  Si1257  1  0.00000000  0.25543720  0.53333340  1
  Si  Si1258  1  0.00000000  0.25543720  0.73333340  1
  Si  Si1259  1  0.00000000  0.25543720  0.93333340  1
  Si  Si1260  1  0.00000000  0.45543720  0.13333340  1
  Si  Si1261  1  0.00000000  0.45543720  0.33333340  1
  Si  Si1262  1  0.00000000  0.45543720  0.53333340  1
  Si  Si1263  1  0.00000000  0.45543720  0.73333340  1
  Si  Si1264  1  0.00000000  0.45543720  0.93333340  1
  Si  Si1265  1  0.00000000  0.65543720  0.13333340  1
  Si  Si1266  1  0.00000000  0.65543720  0.33333340  1
  Si  Si1267  1  0.00000000  0.65543720  0.53333340  1
  Si  Si1268  1  0.00000000  0.65543720  0.73333340  1
  Si  Si1269  1  0.00000000  0.65543720  0.93333340  1
  Si  Si1270  1  0.00000000  0.85543720  0.13333340  1
  Si  Si1271  1  0.00000000  0.85543720  0.33333340  1
  Si  Si1272  1  0.00000000  0.85543720  0.53333340  1
  Si  Si1273  1  0.00000000  0.85543720  0.73333340  1
  Si  Si1274  1  0.00000000  0.85543720  0.93333340  1
  Si  Si1275  1  0.20000000  0.05543720  0.13333340  1
  Si  Si1276  1  0.20000000  0.05543720  0.33333340  1
  Si  Si1277  1  0.20000000  0.05543720  0.53333340  1
  Si  Si1278  1  0.20000000  0.05543720  0.73333340  1
  Si  Si1279  1  0.20000000  0.05543720  0.93333340  1
  Si  Si1280  1  0.20000000  0.25543720  0.13333340  1
  Si  Si1281  1  0.20000000  0.25543720  0.33333340  1
  Si  Si1282  1  0.20000000  0.25543720  0.53333340  1
  Si  Si1283  1  0.20000000  0.25543720  0.73333340  1
  Si  Si1284  1  0.20000000  0.25543720  0.93333340  1
  Si  Si1285  1  0.20000000  0.45543720  0.13333340  1
  Si  Si1286  1  0.20000000  0.45543720  0.33333340  1
  Si  Si1287  1  0.20000000  0.45543720  0.53333340  1
  Si  Si1288  1  0.20000000  0.45543720  0.73333340  1
  Si  Si1289  1  0.20000000  0.45543720  0.93333340  1
  Si  Si1290  1  0.20000000  0.65543720  0.13333340  1
  Si  Si1291  1  0.20000000  0.65543720  0.33333340  1
  Si  Si1292  1  0.20000000  0.65543720  0.53333340  1
  Si  Si1293  1  0.20000000  0.65543720  0.73333340  1
  Si  Si1294  1  0.20000000  0.65543720  0.93333340  1
  Si  Si1295  1  0.20000000  0.85543720  0.13333340  1
  Si  Si1296  1  0.20000000  0.85543720  0.33333340  1
  Si  Si1297  1  0.20000000  0.85543720  0.53333340  1
  Si  Si1298  1  0.20000000  0.85543720  0.73333340  1
  Si  Si1299  1  0.20000000  0.85543720  0.93333340  1
  Si  Si1300  1  0.40000000  0.05543720  0.13333340  1
  Si  Si1301  1  0.40000000  0.05543720  0.33333340  1
  Si  Si1302  1  0.40000000  0.05543720  0.53333340  1
  Si  Si1303  1  0.40000000  0.05543720  0.73333340  1
  Si  Si1304  1  0.40000000  0.05543720  0.93333340  1
  Si  Si1305  1  0.40000000  0.25543720  0.13333340  1
  Si  Si1306  1  0.40000000  0.25543720  0.33333340  1
  Si  Si1307  1  0.40000000  0.25543720  0.53333340  1
  Si  Si1308  1  0.40000000  0.25543720  0.73333340  1
  Si  Si1309  1  0.40000000  0.25543720  0.93333340  1
  Si  Si1310  1  0.40000000  0.45543720  0.13333340  1
  Si  Si1311  1  0.40000000  0.45543720  0.33333340  1
  Si  Si1312  1  0.40000000  0.45543720  0.53333340  1
  Si  Si1313  1  0.40000000  0.45543720  0.73333340  1
  Si  Si1314  1  0.40000000  0.45543720  0.93333340  1
  Si  Si1315  1  0.40000000  0.65543720  0.13333340  1
  Si  Si1316  1  0.40000000  0.65543720  0.33333340  1
  Si  Si1317  1  0.40000000  0.65543720  0.53333340  1
  Si  Si1318  1  0.40000000  0.65543720  0.73333340  1
  Si  Si1319  1  0.40000000  0.65543720  0.93333340  1
  Si  Si1320  1  0.40000000  0.85543720  0.13333340  1
  Si  Si1321  1  0.40000000  0.85543720  0.33333340  1
  Si  Si1322  1  0.40000000  0.85543720  0.53333340  1
  Si  Si1323  1  0.40000000  0.85543720  0.73333340  1
  Si  Si1324  1  0.40000000  0.85543720  0.93333340  1
  Si  Si1325  1  0.60000000  0.05543720  0.13333340  1
  Si  Si1326  1  0.60000000  0.05543720  0.33333340  1
  Si  Si1327  1  0.60000000  0.05543720  0.53333340  1
  Si  Si1328  1  0.60000000  0.05543720  0.73333340  1
  Si  Si1329  1  0.60000000  0.05543720  0.93333340  1
  Si  Si1330  1  0.60000000  0.25543720  0.13333340  1
  Si  Si1331  1  0.60000000  0.25543720  0.33333340  1
  Si  Si1332  1  0.60000000  0.25543720  0.53333340  1
  Si  Si1333  1  0.60000000  0.25543720  0.73333340  1
  Si  Si1334  1  0.60000000  0.25543720  0.93333340  1
  Si  Si1335  1  0.60000000  0.45543720  0.13333340  1
  Si  Si1336  1  0.60000000  0.45543720  0.33333340  1
  Si  Si1337  1  0.60000000  0.45543720  0.53333340  1
  Si  Si1338  1  0.60000000  0.45543720  0.73333340  1
  Si  Si1339  1  0.60000000  0.45543720  0.93333340  1
  Si  Si1340  1  0.60000000  0.65543720  0.13333340  1
  Si  Si1341  1  0.60000000  0.65543720  0.33333340  1
  Si  Si1342  1  0.60000000  0.65543720  0.53333340  1
  Si  Si1343  1  0.60000000  0.65543720  0.73333340  1
  Si  Si1344  1  0.60000000  0.65543720  0.93333340  1
  Si  Si1345  1  0.60000000  0.85543720  0.13333340  1
  Si  Si1346  1  0.60000000  0.85543720  0.33333340  1
  Si  Si1347  1  0.60000000  0.85543720  0.53333340  1
  Si  Si1348  1  0.60000000  0.85543720  0.73333340  1
  Si  Si1349  1  0.60000000  0.85543720  0.93333340  1
  Si  Si1350  1  0.80000000  0.05543720  0.13333340  1
  Si  Si1351  1  0.80000000  0.05543720  0.33333340  1
  Si  Si1352  1  0.80000000  0.05543720  0.53333340  1
  Si  Si1353  1  0.80000000  0.05543720  0.73333340  1
  Si  Si1354  1  0.80000000  0.05543720  0.93333340  1
  Si  Si1355  1  0.80000000  0.25543720  0.13333340  1
  Si  Si1356  1  0.80000000  0.25543720  0.33333340  1
  Si  Si1357  1  0.80000000  0.25543720  0.53333340  1
  Si  Si1358  1  0.80000000  0.25543720  0.73333340  1
  Si  Si1359  1  0.80000000  0.25543720  0.93333340  1
  Si  Si1360  1  0.80000000  0.45543720  0.13333340  1
  Si  Si1361  1  0.80000000  0.45543720  0.33333340  1
  Si  Si1362  1  0.80000000  0.45543720  0.53333340  1
  Si  Si1363  1  0.80000000  0.45543720  0.73333340  1
  Si  Si1364  1  0.80000000  0.45543720  0.93333340  1
  Si  Si1365  1  0.80000000  0.65543720  0.13333340  1
  Si  Si1366  1  0.80000000  0.65543720  0.33333340  1
  Si  Si1367  1  0.80000000  0.65543720  0.53333340  1
  Si  Si1368  1  0.80000000  0.65543720  0.73333340  1
  Si  Si1369  1  0.80000000  0.65543720  0.93333340  1
  Si  Si1370  1  0.80000000  0.85543720  0.13333340  1
  Si  Si1371  1  0.80000000  0.85543720  0.33333340  1
  Si  Si1372  1  0.80000000  0.85543720  0.53333340  1
  Si  Si1373  1  0.80000000  0.85543720  0.73333340  1
  Si  Si1374  1  0.80000000  0.85543720  0.93333340  1
  Si  Si1375  1  0.05543720  0.00000000  0.06666660  1
  Si  Si1376  1  0.05543720  0.00000000  0.26666660  1
  Si  Si1377  1  0.05543720  0.00000000  0.46666660  1
  Si  Si1378  1  0.05543720  0.00000000  0.66666660  1
  Si  Si1379  1  0.05543720  0.00000000  0.86666660  1
  Si  Si1380  1  0.05543720  0.20000000  0.06666660  1
  Si  Si1381  1  0.05543720  0.20000000  0.26666660  1
  Si  Si1382  1  0.05543720  0.20000000  0.46666660  1
  Si  Si1383  1  0.05543720  0.20000000  0.66666660  1
  Si  Si1384  1  0.05543720  0.20000000  0.86666660  1
  Si  Si1385  1  0.05543720  0.40000000  0.06666660  1
  Si  Si1386  1  0.05543720  0.40000000  0.26666660  1
  Si  Si1387  1  0.05543720  0.40000000  0.46666660  1
  Si  Si1388  1  0.05543720  0.40000000  0.66666660  1
  Si  Si1389  1  0.05543720  0.40000000  0.86666660  1
  Si  Si1390  1  0.05543720  0.60000000  0.06666660  1
  Si  Si1391  1  0.05543720  0.60000000  0.26666660  1
  Si  Si1392  1  0.05543720  0.60000000  0.46666660  1
  Si  Si1393  1  0.05543720  0.60000000  0.66666660  1
  Si  Si1394  1  0.05543720  0.60000000  0.86666660  1
  Si  Si1395  1  0.05543720  0.80000000  0.06666660  1
  Si  Si1396  1  0.05543720  0.80000000  0.26666660  1
  Si  Si1397  1  0.05543720  0.80000000  0.46666660  1
  Si  Si1398  1  0.05543720  0.80000000  0.66666660  1
  Si  Si1399  1  0.05543720  0.80000000  0.86666660  1
  Si  Si1400  1  0.25543720  0.00000000  0.06666660  1
  Si  Si1401  1  0.25543720  0.00000000  0.26666660  1
  Si  Si1402  1  0.25543720  0.00000000  0.46666660  1
  Si  Si1403  1  0.25543720  0.00000000  0.66666660  1
  Si  Si1404  1  0.25543720  0.00000000  0.86666660  1
  Si  Si1405  1  0.25543720  0.20000000  0.06666660  1
  Si  Si1406  1  0.25543720  0.20000000  0.26666660  1
  Si  Si1407  1  0.25543720  0.20000000  0.46666660  1
  Si  Si1408  1  0.25543720  0.20000000  0.66666660  1
  Si  Si1409  1  0.25543720  0.20000000  0.86666660  1
  Si  Si1410  1  0.25543720  0.40000000  0.06666660  1
  Si  Si1411  1  0.25543720  0.40000000  0.26666660  1
  Si  Si1412  1  0.25543720  0.40000000  0.46666660  1
  Si  Si1413  1  0.25543720  0.40000000  0.66666660  1
  Si  Si1414  1  0.25543720  0.40000000  0.86666660  1
  Si  Si1415  1  0.25543720  0.60000000  0.06666660  1
  Si  Si1416  1  0.25543720  0.60000000  0.26666660  1
  Si  Si1417  1  0.25543720  0.60000000  0.46666660  1
  Si  Si1418  1  0.25543720  0.60000000  0.66666660  1
  Si  Si1419  1  0.25543720  0.60000000  0.86666660  1
  Si  Si1420  1  0.25543720  0.80000000  0.06666660  1
  Si  Si1421  1  0.25543720  0.80000000  0.26666660  1
  Si  Si1422  1  0.25543720  0.80000000  0.46666660  1
  Si  Si1423  1  0.25543720  0.80000000  0.66666660  1
  Si  Si1424  1  0.25543720  0.80000000  0.86666660  1
  Si  Si1425  1  0.45543720  0.00000000  0.06666660  1
  Si  Si1426  1  0.45543720  0.00000000  0.26666660  1
  Si  Si1427  1  0.45543720  0.00000000  0.46666660  1
  Si  Si1428  1  0.45543720  0.00000000  0.66666660  1
  Si  Si1429  1  0.45543720  0.00000000  0.86666660  1
  Si  Si1430  1  0.45543720  0.20000000  0.06666660  1
  Si  Si1431  1  0.45543720  0.20000000  0.26666660  1
  Si  Si1432  1  0.45543720  0.20000000  0.46666660  1
  Si  Si1433  1  0.45543720  0.20000000  0.66666660  1
  Si  Si1434  1  0.45543720  0.20000000  0.86666660  1
  Si  Si1435  1  0.45543720  0.40000000  0.06666660  1
  Si  Si1436  1  0.45543720  0.40000000  0.26666660  1
  Si  Si1437  1  0.45543720  0.40000000  0.46666660  1
  Si  Si1438  1  0.45543720  0.40000000  0.66666660  1
  Si  Si1439  1  0.45543720  0.40000000  0.86666660  1
  Si  Si1440  1  0.45543720  0.60000000  0.06666660  1
  Si  Si1441  1  0.45543720  0.60000000  0.26666660  1
  Si  Si1442  1  0.45543720  0.60000000  0.46666660  1
  Si  Si1443  1  0.45543720  0.60000000  0.66666660  1
  Si  Si1444  1  0.45543720  0.60000000  0.86666660  1
  Si  Si1445  1  0.45543720  0.80000000  0.06666660  1
  Si  Si1446  1  0.45543720  0.80000000  0.26666660  1
  Si  Si1447  1  0.45543720  0.80000000  0.46666660  1
  Si  Si1448  1  0.45543720  0.80000000  0.66666660  1
  Si  Si1449  1  0.45543720  0.80000000  0.86666660  1
  Si  Si1450  1  0.65543720  0.00000000  0.06666660  1
  Si  Si1451  1  0.65543720  0.00000000  0.26666660  1
  Si  Si1452  1  0.65543720  0.00000000  0.46666660  1
  Si  Si1453  1  0.65543720  0.00000000  0.66666660  1
  Si  Si1454  1  0.65543720  0.00000000  0.86666660  1
  Si  Si1455  1  0.65543720  0.20000000  0.06666660  1
  Si  Si1456  1  0.65543720  0.20000000  0.26666660  1
  Si  Si1457  1  0.65543720  0.20000000  0.46666660  1
  Si  Si1458  1  0.65543720  0.20000000  0.66666660  1
  Si  Si1459  1  0.65543720  0.20000000  0.86666660  1
  Si  Si1460  1  0.65543720  0.40000000  0.06666660  1
  Si  Si1461  1  0.65543720  0.40000000  0.26666660  1
  Si  Si1462  1  0.65543720  0.40000000  0.46666660  1
  Si  Si1463  1  0.65543720  0.40000000  0.66666660  1
  Si  Si1464  1  0.65543720  0.40000000  0.86666660  1
  Si  Si1465  1  0.65543720  0.60000000  0.06666660  1
  Si  Si1466  1  0.65543720  0.60000000  0.26666660  1
  Si  Si1467  1  0.65543720  0.60000000  0.46666660  1
  Si  Si1468  1  0.65543720  0.60000000  0.66666660  1
  Si  Si1469  1  0.65543720  0.60000000  0.86666660  1
  Si  Si1470  1  0.65543720  0.80000000  0.06666660  1
  Si  Si1471  1  0.65543720  0.80000000  0.26666660  1
  Si  Si1472  1  0.65543720  0.80000000  0.46666660  1
  Si  Si1473  1  0.65543720  0.80000000  0.66666660  1
  Si  Si1474  1  0.65543720  0.80000000  0.86666660  1
  Si  Si1475  1  0.85543720  0.00000000  0.06666660  1
  Si  Si1476  1  0.85543720  0.00000000  0.26666660  1
  Si  Si1477  1  0.85543720  0.00000000  0.46666660  1
  Si  Si1478  1  0.85543720  0.00000000  0.66666660  1
  Si  Si1479  1  0.85543720  0.00000000  0.86666660  1
  Si  Si1480  1  0.85543720  0.20000000  0.06666660  1
  Si  Si1481  1  0.85543720  0.20000000  0.26666660  1
  Si  Si1482  1  0.85543720  0.20000000  0.46666660  1
  Si  Si1483  1  0.85543720  0.20000000  0.66666660  1
  Si  Si1484  1  0.85543720  0.20000000  0.86666660  1
  Si  Si1485  1  0.85543720  0.40000000  0.06666660  1
  Si  Si1486  1  0.85543720  0.40000000  0.26666660  1
  Si  Si1487  1  0.85543720  0.40000000  0.46666660  1
  Si  Si1488  1  0.85543720  0.40000000  0.66666660  1
  Si  Si1489  1  0.85543720  0.40000000  0.86666660  1
  Si  Si1490  1  0.85543720  0.60000000  0.06666660  1
  Si  Si1491  1  0.85543720  0.60000000  0.26666660  1
  Si  Si1492  1  0.85543720  0.60000000  0.46666660  1
  Si  Si1493  1  0.85543720  0.60000000  0.66666660  1
  Si  Si1494  1  0.85543720  0.60000000  0.86666660  1
  Si  Si1495  1  0.85543720  0.80000000  0.06666660  1
  Si  Si1496  1  0.85543720  0.80000000  0.26666660  1
  Si  Si1497  1  0.85543720  0.80000000  0.46666660  1
  Si  Si1498  1  0.85543720  0.80000000  0.66666660  1
  Si  Si1499  1  0.85543720  0.80000000  0.86666660  1
  O  O1500  1  0.04788780  0.06162840  0.06585400  1
  O  O1501  1  0.04788780  0.06162840  0.26585400  1
  O  O1502  1  0.04788780  0.06162840  0.46585400  1
  O  O1503  1  0.04788780  0.06162840  0.66585400  1
  O  O1504  1  0.04788780  0.06162840  0.86585400  1
  O  O1505  1  0.04788780  0.26162840  0.06585400  1
  O  O1506  1  0.04788780  0.26162840  0.26585400  1
  O  O1507  1  0.04788780  0.26162840  0.46585400  1
  O  O1508  1  0.04788780  0.26162840  0.66585400  1
  O  O1509  1  0.04788780  0.26162840  0.86585400  1
  O  O1510  1  0.04788780  0.46162840  0.06585400  1
  O  O1511  1  0.04788780  0.46162840  0.26585400  1
  O  O1512  1  0.04788780  0.46162840  0.46585400  1
  O  O1513  1  0.04788780  0.46162840  0.66585400  1
  O  O1514  1  0.04788780  0.46162840  0.86585400  1
  O  O1515  1  0.04788780  0.66162840  0.06585400  1
  O  O1516  1  0.04788780  0.66162840  0.26585400  1
  O  O1517  1  0.04788780  0.66162840  0.46585400  1
  O  O1518  1  0.04788780  0.66162840  0.66585400  1
  O  O1519  1  0.04788780  0.66162840  0.86585400  1
  O  O1520  1  0.04788780  0.86162840  0.06585400  1
  O  O1521  1  0.04788780  0.86162840  0.26585400  1
  O  O1522  1  0.04788780  0.86162840  0.46585400  1
  O  O1523  1  0.04788780  0.86162840  0.66585400  1
  O  O1524  1  0.04788780  0.86162840  0.86585400  1
  O  O1525  1  0.24788780  0.06162840  0.06585400  1
  O  O1526  1  0.24788780  0.06162840  0.26585400  1
  O  O1527  1  0.24788780  0.06162840  0.46585400  1
  O  O1528  1  0.24788780  0.06162840  0.66585400  1
  O  O1529  1  0.24788780  0.06162840  0.86585400  1
  O  O1530  1  0.24788780  0.26162840  0.06585400  1
  O  O1531  1  0.24788780  0.26162840  0.26585400  1
  O  O1532  1  0.24788780  0.26162840  0.46585400  1
  O  O1533  1  0.24788780  0.26162840  0.66585400  1
  O  O1534  1  0.24788780  0.26162840  0.86585400  1
  O  O1535  1  0.24788780  0.46162840  0.06585400  1
  O  O1536  1  0.24788780  0.46162840  0.26585400  1
  O  O1537  1  0.24788780  0.46162840  0.46585400  1
  O  O1538  1  0.24788780  0.46162840  0.66585400  1
  O  O1539  1  0.24788780  0.46162840  0.86585400  1
  O  O1540  1  0.24788780  0.66162840  0.06585400  1
  O  O1541  1  0.24788780  0.66162840  0.26585400  1
  O  O1542  1  0.24788780  0.66162840  0.46585400  1
  O  O1543  1  0.24788780  0.66162840  0.66585400  1
  O  O1544  1  0.24788780  0.66162840  0.86585400  1
  O  O1545  1  0.24788780  0.86162840  0.06585400  1
  O  O1546  1  0.24788780  0.86162840  0.26585400  1
  O  O1547  1  0.24788780  0.86162840  0.46585400  1
  O  O1548  1  0.24788780  0.86162840  0.66585400  1
  O  O1549  1  0.24788780  0.86162840  0.86585400  1
  O  O1550  1  0.44788780  0.06162840  0.06585400  1
  O  O1551  1  0.44788780  0.06162840  0.26585400  1
  O  O1552  1  0.44788780  0.06162840  0.46585400  1
  O  O1553  1  0.44788780  0.06162840  0.66585400  1
  O  O1554  1  0.44788780  0.06162840  0.86585400  1
  O  O1555  1  0.44788780  0.26162840  0.06585400  1
  O  O1556  1  0.44788780  0.26162840  0.26585400  1
  O  O1557  1  0.44788780  0.26162840  0.46585400  1
  O  O1558  1  0.44788780  0.26162840  0.66585400  1
  O  O1559  1  0.44788780  0.26162840  0.86585400  1
  O  O1560  1  0.44788780  0.46162840  0.06585400  1
  O  O1561  1  0.44788780  0.46162840  0.26585400  1
  O  O1562  1  0.44788780  0.46162840  0.46585400  1
  O  O1563  1  0.44788780  0.46162840  0.66585400  1
  O  O1564  1  0.44788780  0.46162840  0.86585400  1
  O  O1565  1  0.44788780  0.66162840  0.06585400  1
  O  O1566  1  0.44788780  0.66162840  0.26585400  1
  O  O1567  1  0.44788780  0.66162840  0.46585400  1
  O  O1568  1  0.44788780  0.66162840  0.66585400  1
  O  O1569  1  0.44788780  0.66162840  0.86585400  1
  O  O1570  1  0.44788780  0.86162840  0.06585400  1
  O  O1571  1  0.44788780  0.86162840  0.26585400  1
  O  O1572  1  0.44788780  0.86162840  0.46585400  1
  O  O1573  1  0.44788780  0.86162840  0.66585400  1
  O  O1574  1  0.44788780  0.86162840  0.86585400  1
  O  O1575  1  0.64788780  0.06162840  0.06585400  1
  O  O1576  1  0.64788780  0.06162840  0.26585400  1
  O  O1577  1  0.64788780  0.06162840  0.46585400  1
  O  O1578  1  0.64788780  0.06162840  0.66585400  1
  O  O1579  1  0.64788780  0.06162840  0.86585400  1
  O  O1580  1  0.64788780  0.26162840  0.06585400  1
  O  O1581  1  0.64788780  0.26162840  0.26585400  1
  O  O1582  1  0.64788780  0.26162840  0.46585400  1
  O  O1583  1  0.64788780  0.26162840  0.66585400  1
  O  O1584  1  0.64788780  0.26162840  0.86585400  1
  O  O1585  1  0.64788780  0.46162840  0.06585400  1
  O  O1586  1  0.64788780  0.46162840  0.26585400  1
  O  O1587  1  0.64788780  0.46162840  0.46585400  1
  O  O1588  1  0.64788780  0.46162840  0.66585400  1
  O  O1589  1  0.64788780  0.46162840  0.86585400  1
  O  O1590  1  0.64788780  0.66162840  0.06585400  1
  O  O1591  1  0.64788780  0.66162840  0.26585400  1
  O  O1592  1  0.64788780  0.66162840  0.46585400  1
  O  O1593  1  0.64788780  0.66162840  0.66585400  1
  O  O1594  1  0.64788780  0.66162840  0.86585400  1
  O  O1595  1  0.64788780  0.86162840  0.06585400  1
  O  O1596  1  0.64788780  0.86162840  0.26585400  1
  O  O1597  1  0.64788780  0.86162840  0.46585400  1
  O  O1598  1  0.64788780  0.86162840  0.66585400  1
  O  O1599  1  0.64788780  0.86162840  0.86585400  1
  O  O1600  1  0.84788780  0.06162840  0.06585400  1
  O  O1601  1  0.84788780  0.06162840  0.26585400  1
  O  O1602  1  0.84788780  0.06162840  0.46585400  1
  O  O1603  1  0.84788780  0.06162840  0.66585400  1
  O  O1604  1  0.84788780  0.06162840  0.86585400  1
  O  O1605  1  0.84788780  0.26162840  0.06585400  1
  O  O1606  1  0.84788780  0.26162840  0.26585400  1
  O  O1607  1  0.84788780  0.26162840  0.46585400  1
  O  O1608  1  0.84788780  0.26162840  0.66585400  1
  O  O1609  1  0.84788780  0.26162840  0.86585400  1
  O  O1610  1  0.84788780  0.46162840  0.06585400  1
  O  O1611  1  0.84788780  0.46162840  0.26585400  1
  O  O1612  1  0.84788780  0.46162840  0.46585400  1
  O  O1613  1  0.84788780  0.46162840  0.66585400  1
  O  O1614  1  0.84788780  0.46162840  0.86585400  1
  O  O1615  1  0.84788780  0.66162840  0.06585400  1
  O  O1616  1  0.84788780  0.66162840  0.26585400  1
  O  O1617  1  0.84788780  0.66162840  0.46585400  1
  O  O1618  1  0.84788780  0.66162840  0.66585400  1
  O  O1619  1  0.84788780  0.66162840  0.86585400  1
  O  O1620  1  0.84788780  0.86162840  0.06585400  1
  O  O1621  1  0.84788780  0.86162840  0.26585400  1
  O  O1622  1  0.84788780  0.86162840  0.46585400  1
  O  O1623  1  0.84788780  0.86162840  0.66585400  1
  O  O1624  1  0.84788780  0.86162840  0.86585400  1
  O  O1625  1  0.01374060  0.15211220  0.19918740  1
  O  O1626  1  0.01374060  0.15211220  0.39918740  1
  O  O1627  1  0.01374060  0.15211220  0.59918740  1
  O  O1628  1  0.01374060  0.15211220  0.79918740  1
  O  O1629  1  0.01374060  0.15211220  0.99918740  1
  O  O1630  1  0.01374060  0.35211220  0.19918740  1
  O  O1631  1  0.01374060  0.35211220  0.39918740  1
  O  O1632  1  0.01374060  0.35211220  0.59918740  1
  O  O1633  1  0.01374060  0.35211220  0.79918740  1
  O  O1634  1  0.01374060  0.35211220  0.99918740  1
  O  O1635  1  0.01374060  0.55211220  0.19918740  1
  O  O1636  1  0.01374060  0.55211220  0.39918740  1
  O  O1637  1  0.01374060  0.55211220  0.59918740  1
  O  O1638  1  0.01374060  0.55211220  0.79918740  1
  O  O1639  1  0.01374060  0.55211220  0.99918740  1
  O  O1640  1  0.01374060  0.75211220  0.19918740  1
  O  O1641  1  0.01374060  0.75211220  0.39918740  1
  O  O1642  1  0.01374060  0.75211220  0.59918740  1
  O  O1643  1  0.01374060  0.75211220  0.79918740  1
  O  O1644  1  0.01374060  0.75211220  0.99918740  1
  O  O1645  1  0.01374060  0.95211220  0.19918740  1
  O  O1646  1  0.01374060  0.95211220  0.39918740  1
  O  O1647  1  0.01374060  0.95211220  0.59918740  1
  O  O1648  1  0.01374060  0.95211220  0.79918740  1
  O  O1649  1  0.01374060  0.95211220  0.99918740  1
  O  O1650  1  0.21374060  0.15211220  0.19918740  1
  O  O1651  1  0.21374060  0.15211220  0.39918740  1
  O  O1652  1  0.21374060  0.15211220  0.59918740  1
  O  O1653  1  0.21374060  0.15211220  0.79918740  1
  O  O1654  1  0.21374060  0.15211220  0.99918740  1
  O  O1655  1  0.21374060  0.35211220  0.19918740  1
  O  O1656  1  0.21374060  0.35211220  0.39918740  1
  O  O1657  1  0.21374060  0.35211220  0.59918740  1
  O  O1658  1  0.21374060  0.35211220  0.79918740  1
  O  O1659  1  0.21374060  0.35211220  0.99918740  1
  O  O1660  1  0.21374060  0.55211220  0.19918740  1
  O  O1661  1  0.21374060  0.55211220  0.39918740  1
  O  O1662  1  0.21374060  0.55211220  0.59918740  1
  O  O1663  1  0.21374060  0.55211220  0.79918740  1
  O  O1664  1  0.21374060  0.55211220  0.99918740  1
  O  O1665  1  0.21374060  0.75211220  0.19918740  1
  O  O1666  1  0.21374060  0.75211220  0.39918740  1
  O  O1667  1  0.21374060  0.75211220  0.59918740  1
  O  O1668  1  0.21374060  0.75211220  0.79918740  1
  O  O1669  1  0.21374060  0.75211220  0.99918740  1
  O  O1670  1  0.21374060  0.95211220  0.19918740  1
  O  O1671  1  0.21374060  0.95211220  0.39918740  1
  O  O1672  1  0.21374060  0.95211220  0.59918740  1
  O  O1673  1  0.21374060  0.95211220  0.79918740  1
  O  O1674  1  0.21374060  0.95211220  0.99918740  1
  O  O1675  1  0.41374060  0.15211220  0.19918740  1
  O  O1676  1  0.41374060  0.15211220  0.39918740  1
  O  O1677  1  0.41374060  0.15211220  0.59918740  1
  O  O1678  1  0.41374060  0.15211220  0.79918740  1
  O  O1679  1  0.41374060  0.15211220  0.99918740  1
  O  O1680  1  0.41374060  0.35211220  0.19918740  1
  O  O1681  1  0.41374060  0.35211220  0.39918740  1
  O  O1682  1  0.41374060  0.35211220  0.59918740  1
  O  O1683  1  0.41374060  0.35211220  0.79918740  1
  O  O1684  1  0.41374060  0.35211220  0.99918740  1
  O  O1685  1  0.41374060  0.55211220  0.19918740  1
  O  O1686  1  0.41374060  0.55211220  0.39918740  1
  O  O1687  1  0.41374060  0.55211220  0.59918740  1
  O  O1688  1  0.41374060  0.55211220  0.79918740  1
  O  O1689  1  0.41374060  0.55211220  0.99918740  1
  O  O1690  1  0.41374060  0.75211220  0.19918740  1
  O  O1691  1  0.41374060  0.75211220  0.39918740  1
  O  O1692  1  0.41374060  0.75211220  0.59918740  1
  O  O1693  1  0.41374060  0.75211220  0.79918740  1
  O  O1694  1  0.41374060  0.75211220  0.99918740  1
  O  O1695  1  0.41374060  0.95211220  0.19918740  1
  O  O1696  1  0.41374060  0.95211220  0.39918740  1
  O  O1697  1  0.41374060  0.95211220  0.59918740  1
  O  O1698  1  0.41374060  0.95211220  0.79918740  1
  O  O1699  1  0.41374060  0.95211220  0.99918740  1
  O  O1700  1  0.61374060  0.15211220  0.19918740  1
  O  O1701  1  0.61374060  0.15211220  0.39918740  1
  O  O1702  1  0.61374060  0.15211220  0.59918740  1
  O  O1703  1  0.61374060  0.15211220  0.79918740  1
  O  O1704  1  0.61374060  0.15211220  0.99918740  1
  O  O1705  1  0.61374060  0.35211220  0.19918740  1
  O  O1706  1  0.61374060  0.35211220  0.39918740  1
  O  O1707  1  0.61374060  0.35211220  0.59918740  1
  O  O1708  1  0.61374060  0.35211220  0.79918740  1
  O  O1709  1  0.61374060  0.35211220  0.99918740  1
  O  O1710  1  0.61374060  0.55211220  0.19918740  1
  O  O1711  1  0.61374060  0.55211220  0.39918740  1
  O  O1712  1  0.61374060  0.55211220  0.59918740  1
  O  O1713  1  0.61374060  0.55211220  0.79918740  1
  O  O1714  1  0.61374060  0.55211220  0.99918740  1
  O  O1715  1  0.61374060  0.75211220  0.19918740  1
  O  O1716  1  0.61374060  0.75211220  0.39918740  1
  O  O1717  1  0.61374060  0.75211220  0.59918740  1
  O  O1718  1  0.61374060  0.75211220  0.79918740  1
  O  O1719  1  0.61374060  0.75211220  0.99918740  1
  O  O1720  1  0.61374060  0.95211220  0.19918740  1
  O  O1721  1  0.61374060  0.95211220  0.39918740  1
  O  O1722  1  0.61374060  0.95211220  0.59918740  1
  O  O1723  1  0.61374060  0.95211220  0.79918740  1
  O  O1724  1  0.61374060  0.95211220  0.99918740  1
  O  O1725  1  0.81374060  0.15211220  0.19918740  1
  O  O1726  1  0.81374060  0.15211220  0.39918740  1
  O  O1727  1  0.81374060  0.15211220  0.59918740  1
  O  O1728  1  0.81374060  0.15211220  0.79918740  1
  O  O1729  1  0.81374060  0.15211220  0.99918740  1
  O  O1730  1  0.81374060  0.35211220  0.19918740  1
  O  O1731  1  0.81374060  0.35211220  0.39918740  1
  O  O1732  1  0.81374060  0.35211220  0.59918740  1
  O  O1733  1  0.81374060  0.35211220  0.79918740  1
  O  O1734  1  0.81374060  0.35211220  0.99918740  1
  O  O1735  1  0.81374060  0.55211220  0.19918740  1
  O  O1736  1  0.81374060  0.55211220  0.39918740  1
  O  O1737  1  0.81374060  0.55211220  0.59918740  1
  O  O1738  1  0.81374060  0.55211220  0.79918740  1
  O  O1739  1  0.81374060  0.55211220  0.99918740  1
  O  O1740  1  0.81374060  0.75211220  0.19918740  1
  O  O1741  1  0.81374060  0.75211220  0.39918740  1
  O  O1742  1  0.81374060  0.75211220  0.59918740  1
  O  O1743  1  0.81374060  0.75211220  0.79918740  1
  O  O1744  1  0.81374060  0.75211220  0.99918740  1
  O  O1745  1  0.81374060  0.95211220  0.19918740  1
  O  O1746  1  0.81374060  0.95211220  0.39918740  1
  O  O1747  1  0.81374060  0.95211220  0.59918740  1
  O  O1748  1  0.81374060  0.95211220  0.79918740  1
  O  O1749  1  0.81374060  0.95211220  0.99918740  1
  O  O1750  1  0.10989300  0.10271060  0.02136300  1
  O  O1751  1  0.10989300  0.10271060  0.22136300  1
  O  O1752  1  0.10989300  0.10271060  0.42136300  1
  O  O1753  1  0.10989300  0.10271060  0.62136300  1
  O  O1754  1  0.10989300  0.10271060  0.82136300  1
  O  O1755  1  0.10989300  0.30271060  0.02136300  1
  O  O1756  1  0.10989300  0.30271060  0.22136300  1
  O  O1757  1  0.10989300  0.30271060  0.42136300  1
  O  O1758  1  0.10989300  0.30271060  0.62136300  1
  O  O1759  1  0.10989300  0.30271060  0.82136300  1
  O  O1760  1  0.10989300  0.50271060  0.02136300  1
  O  O1761  1  0.10989300  0.50271060  0.22136300  1
  O  O1762  1  0.10989300  0.50271060  0.42136300  1
  O  O1763  1  0.10989300  0.50271060  0.62136300  1
  O  O1764  1  0.10989300  0.50271060  0.82136300  1
  O  O1765  1  0.10989300  0.70271060  0.02136300  1
  O  O1766  1  0.10989300  0.70271060  0.22136300  1
  O  O1767  1  0.10989300  0.70271060  0.42136300  1
  O  O1768  1  0.10989300  0.70271060  0.62136300  1
  O  O1769  1  0.10989300  0.70271060  0.82136300  1
  O  O1770  1  0.10989300  0.90271060  0.02136300  1
  O  O1771  1  0.10989300  0.90271060  0.22136300  1
  O  O1772  1  0.10989300  0.90271060  0.42136300  1
  O  O1773  1  0.10989300  0.90271060  0.62136300  1
  O  O1774  1  0.10989300  0.90271060  0.82136300  1
  O  O1775  1  0.30989300  0.10271060  0.02136300  1
  O  O1776  1  0.30989300  0.10271060  0.22136300  1
  O  O1777  1  0.30989300  0.10271060  0.42136300  1
  O  O1778  1  0.30989300  0.10271060  0.62136300  1
  O  O1779  1  0.30989300  0.10271060  0.82136300  1
  O  O1780  1  0.30989300  0.30271060  0.02136300  1
  O  O1781  1  0.30989300  0.30271060  0.22136300  1
  O  O1782  1  0.30989300  0.30271060  0.42136300  1
  O  O1783  1  0.30989300  0.30271060  0.62136300  1
  O  O1784  1  0.30989300  0.30271060  0.82136300  1
  O  O1785  1  0.30989300  0.50271060  0.02136300  1
  O  O1786  1  0.30989300  0.50271060  0.22136300  1
  O  O1787  1  0.30989300  0.50271060  0.42136300  1
  O  O1788  1  0.30989300  0.50271060  0.62136300  1
  O  O1789  1  0.30989300  0.50271060  0.82136300  1
  O  O1790  1  0.30989300  0.70271060  0.02136300  1
  O  O1791  1  0.30989300  0.70271060  0.22136300  1
  O  O1792  1  0.30989300  0.70271060  0.42136300  1
  O  O1793  1  0.30989300  0.70271060  0.62136300  1
  O  O1794  1  0.30989300  0.70271060  0.82136300  1
  O  O1795  1  0.30989300  0.90271060  0.02136300  1
  O  O1796  1  0.30989300  0.90271060  0.22136300  1
  O  O1797  1  0.30989300  0.90271060  0.42136300  1
  O  O1798  1  0.30989300  0.90271060  0.62136300  1
  O  O1799  1  0.30989300  0.90271060  0.82136300  1
  O  O1800  1  0.50989300  0.10271060  0.02136300  1
  O  O1801  1  0.50989300  0.10271060  0.22136300  1
  O  O1802  1  0.50989300  0.10271060  0.42136300  1
  O  O1803  1  0.50989300  0.10271060  0.62136300  1
  O  O1804  1  0.50989300  0.10271060  0.82136300  1
  O  O1805  1  0.50989300  0.30271060  0.02136300  1
  O  O1806  1  0.50989300  0.30271060  0.22136300  1
  O  O1807  1  0.50989300  0.30271060  0.42136300  1
  O  O1808  1  0.50989300  0.30271060  0.62136300  1
  O  O1809  1  0.50989300  0.30271060  0.82136300  1
  O  O1810  1  0.50989300  0.50271060  0.02136300  1
  O  O1811  1  0.50989300  0.50271060  0.22136300  1
  O  O1812  1  0.50989300  0.50271060  0.42136300  1
  O  O1813  1  0.50989300  0.50271060  0.62136300  1
  O  O1814  1  0.50989300  0.50271060  0.82136300  1
  O  O1815  1  0.50989300  0.70271060  0.02136300  1
  O  O1816  1  0.50989300  0.70271060  0.22136300  1
  O  O1817  1  0.50989300  0.70271060  0.42136300  1
  O  O1818  1  0.50989300  0.70271060  0.62136300  1
  O  O1819  1  0.50989300  0.70271060  0.82136300  1
  O  O1820  1  0.50989300  0.90271060  0.02136300  1
  O  O1821  1  0.50989300  0.90271060  0.22136300  1
  O  O1822  1  0.50989300  0.90271060  0.42136300  1
  O  O1823  1  0.50989300  0.90271060  0.62136300  1
  O  O1824  1  0.50989300  0.90271060  0.82136300  1
  O  O1825  1  0.70989300  0.10271060  0.02136300  1
  O  O1826  1  0.70989300  0.10271060  0.22136300  1
  O  O1827  1  0.70989300  0.10271060  0.42136300  1
  O  O1828  1  0.70989300  0.10271060  0.62136300  1
  O  O1829  1  0.70989300  0.10271060  0.82136300  1
  O  O1830  1  0.70989300  0.30271060  0.02136300  1
  O  O1831  1  0.70989300  0.30271060  0.22136300  1
  O  O1832  1  0.70989300  0.30271060  0.42136300  1
  O  O1833  1  0.70989300  0.30271060  0.62136300  1
  O  O1834  1  0.70989300  0.30271060  0.82136300  1
  O  O1835  1  0.70989300  0.50271060  0.02136300  1
  O  O1836  1  0.70989300  0.50271060  0.22136300  1
  O  O1837  1  0.70989300  0.50271060  0.42136300  1
  O  O1838  1  0.70989300  0.50271060  0.62136300  1
  O  O1839  1  0.70989300  0.50271060  0.82136300  1
  O  O1840  1  0.70989300  0.70271060  0.02136300  1
  O  O1841  1  0.70989300  0.70271060  0.22136300  1
  O  O1842  1  0.70989300  0.70271060  0.42136300  1
  O  O1843  1  0.70989300  0.70271060  0.62136300  1
  O  O1844  1  0.70989300  0.70271060  0.82136300  1
  O  O1845  1  0.70989300  0.90271060  0.02136300  1
  O  O1846  1  0.70989300  0.90271060  0.22136300  1
  O  O1847  1  0.70989300  0.90271060  0.42136300  1
  O  O1848  1  0.70989300  0.90271060  0.62136300  1
  O  O1849  1  0.70989300  0.90271060  0.82136300  1
  O  O1850  1  0.90989300  0.10271060  0.02136300  1
  O  O1851  1  0.90989300  0.10271060  0.22136300  1
  O  O1852  1  0.90989300  0.10271060  0.42136300  1
  O  O1853  1  0.90989300  0.10271060  0.62136300  1
  O  O1854  1  0.90989300  0.10271060  0.82136300  1
  O  O1855  1  0.90989300  0.30271060  0.02136300  1
  O  O1856  1  0.90989300  0.30271060  0.22136300  1
  O  O1857  1  0.90989300  0.30271060  0.42136300  1
  O  O1858  1  0.90989300  0.30271060  0.62136300  1
  O  O1859  1  0.90989300  0.30271060  0.82136300  1
  O  O1860  1  0.90989300  0.50271060  0.02136300  1
  O  O1861  1  0.90989300  0.50271060  0.22136300  1
  O  O1862  1  0.90989300  0.50271060  0.42136300  1
  O  O1863  1  0.90989300  0.50271060  0.62136300  1
  O  O1864  1  0.90989300  0.50271060  0.82136300  1
  O  O1865  1  0.90989300  0.70271060  0.02136300  1
  O  O1866  1  0.90989300  0.70271060  0.22136300  1
  O  O1867  1  0.90989300  0.70271060  0.42136300  1
  O  O1868  1  0.90989300  0.70271060  0.62136300  1
  O  O1869  1  0.90989300  0.70271060  0.82136300  1
  O  O1870  1  0.90989300  0.90271060  0.02136300  1
  O  O1871  1  0.90989300  0.90271060  0.22136300  1
  O  O1872  1  0.90989300  0.90271060  0.42136300  1
  O  O1873  1  0.90989300  0.90271060  0.62136300  1
  O  O1874  1  0.90989300  0.90271060  0.82136300  1
  O  O1875  1  0.13837160  0.18625940  0.13252080  1
  O  O1876  1  0.13837160  0.18625940  0.33252080  1
  O  O1877  1  0.13837160  0.18625940  0.53252080  1
  O  O1878  1  0.13837160  0.18625940  0.73252080  1
  O  O1879  1  0.13837160  0.18625940  0.93252080  1
  O  O1880  1  0.13837160  0.38625940  0.13252080  1
  O  O1881  1  0.13837160  0.38625940  0.33252080  1
  O  O1882  1  0.13837160  0.38625940  0.53252080  1
  O  O1883  1  0.13837160  0.38625940  0.73252080  1
  O  O1884  1  0.13837160  0.38625940  0.93252080  1
  O  O1885  1  0.13837160  0.58625940  0.13252080  1
  O  O1886  1  0.13837160  0.58625940  0.33252080  1
  O  O1887  1  0.13837160  0.58625940  0.53252080  1
  O  O1888  1  0.13837160  0.58625940  0.73252080  1
  O  O1889  1  0.13837160  0.58625940  0.93252080  1
  O  O1890  1  0.13837160  0.78625940  0.13252080  1
  O  O1891  1  0.13837160  0.78625940  0.33252080  1
  O  O1892  1  0.13837160  0.78625940  0.53252080  1
  O  O1893  1  0.13837160  0.78625940  0.73252080  1
  O  O1894  1  0.13837160  0.78625940  0.93252080  1
  O  O1895  1  0.13837160  0.98625940  0.13252080  1
  O  O1896  1  0.13837160  0.98625940  0.33252080  1
  O  O1897  1  0.13837160  0.98625940  0.53252080  1
  O  O1898  1  0.13837160  0.98625940  0.73252080  1
  O  O1899  1  0.13837160  0.98625940  0.93252080  1
  O  O1900  1  0.33837160  0.18625940  0.13252080  1
  O  O1901  1  0.33837160  0.18625940  0.33252080  1
  O  O1902  1  0.33837160  0.18625940  0.53252080  1
  O  O1903  1  0.33837160  0.18625940  0.73252080  1
  O  O1904  1  0.33837160  0.18625940  0.93252080  1
  O  O1905  1  0.33837160  0.38625940  0.13252080  1
  O  O1906  1  0.33837160  0.38625940  0.33252080  1
  O  O1907  1  0.33837160  0.38625940  0.53252080  1
  O  O1908  1  0.33837160  0.38625940  0.73252080  1
  O  O1909  1  0.33837160  0.38625940  0.93252080  1
  O  O1910  1  0.33837160  0.58625940  0.13252080  1
  O  O1911  1  0.33837160  0.58625940  0.33252080  1
  O  O1912  1  0.33837160  0.58625940  0.53252080  1
  O  O1913  1  0.33837160  0.58625940  0.73252080  1
  O  O1914  1  0.33837160  0.58625940  0.93252080  1
  O  O1915  1  0.33837160  0.78625940  0.13252080  1
  O  O1916  1  0.33837160  0.78625940  0.33252080  1
  O  O1917  1  0.33837160  0.78625940  0.53252080  1
  O  O1918  1  0.33837160  0.78625940  0.73252080  1
  O  O1919  1  0.33837160  0.78625940  0.93252080  1
  O  O1920  1  0.33837160  0.98625940  0.13252080  1
  O  O1921  1  0.33837160  0.98625940  0.33252080  1
  O  O1922  1  0.33837160  0.98625940  0.53252080  1
  O  O1923  1  0.33837160  0.98625940  0.73252080  1
  O  O1924  1  0.33837160  0.98625940  0.93252080  1
  O  O1925  1  0.53837160  0.18625940  0.13252080  1
  O  O1926  1  0.53837160  0.18625940  0.33252080  1
  O  O1927  1  0.53837160  0.18625940  0.53252080  1
  O  O1928  1  0.53837160  0.18625940  0.73252080  1
  O  O1929  1  0.53837160  0.18625940  0.93252080  1
  O  O1930  1  0.53837160  0.38625940  0.13252080  1
  O  O1931  1  0.53837160  0.38625940  0.33252080  1
  O  O1932  1  0.53837160  0.38625940  0.53252080  1
  O  O1933  1  0.53837160  0.38625940  0.73252080  1
  O  O1934  1  0.53837160  0.38625940  0.93252080  1
  O  O1935  1  0.53837160  0.58625940  0.13252080  1
  O  O1936  1  0.53837160  0.58625940  0.33252080  1
  O  O1937  1  0.53837160  0.58625940  0.53252080  1
  O  O1938  1  0.53837160  0.58625940  0.73252080  1
  O  O1939  1  0.53837160  0.58625940  0.93252080  1
  O  O1940  1  0.53837160  0.78625940  0.13252080  1
  O  O1941  1  0.53837160  0.78625940  0.33252080  1
  O  O1942  1  0.53837160  0.78625940  0.53252080  1
  O  O1943  1  0.53837160  0.78625940  0.73252080  1
  O  O1944  1  0.53837160  0.78625940  0.93252080  1
  O  O1945  1  0.53837160  0.98625940  0.13252080  1
  O  O1946  1  0.53837160  0.98625940  0.33252080  1
  O  O1947  1  0.53837160  0.98625940  0.53252080  1
  O  O1948  1  0.53837160  0.98625940  0.73252080  1
  O  O1949  1  0.53837160  0.98625940  0.93252080  1
  O  O1950  1  0.73837160  0.18625940  0.13252080  1
  O  O1951  1  0.73837160  0.18625940  0.33252080  1
  O  O1952  1  0.73837160  0.18625940  0.53252080  1
  O  O1953  1  0.73837160  0.18625940  0.73252080  1
  O  O1954  1  0.73837160  0.18625940  0.93252080  1
  O  O1955  1  0.73837160  0.38625940  0.13252080  1
  O  O1956  1  0.73837160  0.38625940  0.33252080  1
  O  O1957  1  0.73837160  0.38625940  0.53252080  1
  O  O1958  1  0.73837160  0.38625940  0.73252080  1
  O  O1959  1  0.73837160  0.38625940  0.93252080  1
  O  O1960  1  0.73837160  0.58625940  0.13252080  1
  O  O1961  1  0.73837160  0.58625940  0.33252080  1
  O  O1962  1  0.73837160  0.58625940  0.53252080  1
  O  O1963  1  0.73837160  0.58625940  0.73252080  1
  O  O1964  1  0.73837160  0.58625940  0.93252080  1
  O  O1965  1  0.73837160  0.78625940  0.13252080  1
  O  O1966  1  0.73837160  0.78625940  0.33252080  1
  O  O1967  1  0.73837160  0.78625940  0.53252080  1
  O  O1968  1  0.73837160  0.78625940  0.73252080  1
  O  O1969  1  0.73837160  0.78625940  0.93252080  1
  O  O1970  1  0.73837160  0.98625940  0.13252080  1
  O  O1971  1  0.73837160  0.98625940  0.33252080  1
  O  O1972  1  0.73837160  0.98625940  0.53252080  1
  O  O1973  1  0.73837160  0.98625940  0.73252080  1
  O  O1974  1  0.73837160  0.98625940  0.93252080  1
  O  O1975  1  0.93837160  0.18625940  0.13252080  1
  O  O1976  1  0.93837160  0.18625940  0.33252080  1
  O  O1977  1  0.93837160  0.18625940  0.53252080  1
  O  O1978  1  0.93837160  0.18625940  0.73252080  1
  O  O1979  1  0.93837160  0.18625940  0.93252080  1
  O  O1980  1  0.93837160  0.38625940  0.13252080  1
  O  O1981  1  0.93837160  0.38625940  0.33252080  1
  O  O1982  1  0.93837160  0.38625940  0.53252080  1
  O  O1983  1  0.93837160  0.38625940  0.73252080  1
  O  O1984  1  0.93837160  0.38625940  0.93252080  1
  O  O1985  1  0.93837160  0.58625940  0.13252080  1
  O  O1986  1  0.93837160  0.58625940  0.33252080  1
  O  O1987  1  0.93837160  0.58625940  0.53252080  1
  O  O1988  1  0.93837160  0.58625940  0.73252080  1
  O  O1989  1  0.93837160  0.58625940  0.93252080  1
  O  O1990  1  0.93837160  0.78625940  0.13252080  1
  O  O1991  1  0.93837160  0.78625940  0.33252080  1
  O  O1992  1  0.93837160  0.78625940  0.53252080  1
  O  O1993  1  0.93837160  0.78625940  0.73252080  1
  O  O1994  1  0.93837160  0.78625940  0.93252080  1
  O  O1995  1  0.93837160  0.98625940  0.13252080  1
  O  O1996  1  0.93837160  0.98625940  0.33252080  1
  O  O1997  1  0.93837160  0.98625940  0.53252080  1
  O  O1998  1  0.93837160  0.98625940  0.73252080  1
  O  O1999  1  0.93837160  0.98625940  0.93252080  1
  O  O2000  1  0.06162840  0.04788780  0.13414600  1
  O  O2001  1  0.06162840  0.04788780  0.33414600  1
  O  O2002  1  0.06162840  0.04788780  0.53414600  1
  O  O2003  1  0.06162840  0.04788780  0.73414600  1
  O  O2004  1  0.06162840  0.04788780  0.93414600  1
  O  O2005  1  0.06162840  0.24788780  0.13414600  1
  O  O2006  1  0.06162840  0.24788780  0.33414600  1
  O  O2007  1  0.06162840  0.24788780  0.53414600  1
  O  O2008  1  0.06162840  0.24788780  0.73414600  1
  O  O2009  1  0.06162840  0.24788780  0.93414600  1
  O  O2010  1  0.06162840  0.44788780  0.13414600  1
  O  O2011  1  0.06162840  0.44788780  0.33414600  1
  O  O2012  1  0.06162840  0.44788780  0.53414600  1
  O  O2013  1  0.06162840  0.44788780  0.73414600  1
  O  O2014  1  0.06162840  0.44788780  0.93414600  1
  O  O2015  1  0.06162840  0.64788780  0.13414600  1
  O  O2016  1  0.06162840  0.64788780  0.33414600  1
  O  O2017  1  0.06162840  0.64788780  0.53414600  1
  O  O2018  1  0.06162840  0.64788780  0.73414600  1
  O  O2019  1  0.06162840  0.64788780  0.93414600  1
  O  O2020  1  0.06162840  0.84788780  0.13414600  1
  O  O2021  1  0.06162840  0.84788780  0.33414600  1
  O  O2022  1  0.06162840  0.84788780  0.53414600  1
  O  O2023  1  0.06162840  0.84788780  0.73414600  1
  O  O2024  1  0.06162840  0.84788780  0.93414600  1
  O  O2025  1  0.26162840  0.04788780  0.13414600  1
  O  O2026  1  0.26162840  0.04788780  0.33414600  1
  O  O2027  1  0.26162840  0.04788780  0.53414600  1
  O  O2028  1  0.26162840  0.04788780  0.73414600  1
  O  O2029  1  0.26162840  0.04788780  0.93414600  1
  O  O2030  1  0.26162840  0.24788780  0.13414600  1
  O  O2031  1  0.26162840  0.24788780  0.33414600  1
  O  O2032  1  0.26162840  0.24788780  0.53414600  1
  O  O2033  1  0.26162840  0.24788780  0.73414600  1
  O  O2034  1  0.26162840  0.24788780  0.93414600  1
  O  O2035  1  0.26162840  0.44788780  0.13414600  1
  O  O2036  1  0.26162840  0.44788780  0.33414600  1
  O  O2037  1  0.26162840  0.44788780  0.53414600  1
  O  O2038  1  0.26162840  0.44788780  0.73414600  1
  O  O2039  1  0.26162840  0.44788780  0.93414600  1
  O  O2040  1  0.26162840  0.64788780  0.13414600  1
  O  O2041  1  0.26162840  0.64788780  0.33414600  1
  O  O2042  1  0.26162840  0.64788780  0.53414600  1
  O  O2043  1  0.26162840  0.64788780  0.73414600  1
  O  O2044  1  0.26162840  0.64788780  0.93414600  1
  O  O2045  1  0.26162840  0.84788780  0.13414600  1
  O  O2046  1  0.26162840  0.84788780  0.33414600  1
  O  O2047  1  0.26162840  0.84788780  0.53414600  1
  O  O2048  1  0.26162840  0.84788780  0.73414600  1
  O  O2049  1  0.26162840  0.84788780  0.93414600  1
  O  O2050  1  0.46162840  0.04788780  0.13414600  1
  O  O2051  1  0.46162840  0.04788780  0.33414600  1
  O  O2052  1  0.46162840  0.04788780  0.53414600  1
  O  O2053  1  0.46162840  0.04788780  0.73414600  1
  O  O2054  1  0.46162840  0.04788780  0.93414600  1
  O  O2055  1  0.46162840  0.24788780  0.13414600  1
  O  O2056  1  0.46162840  0.24788780  0.33414600  1
  O  O2057  1  0.46162840  0.24788780  0.53414600  1
  O  O2058  1  0.46162840  0.24788780  0.73414600  1
  O  O2059  1  0.46162840  0.24788780  0.93414600  1
  O  O2060  1  0.46162840  0.44788780  0.13414600  1
  O  O2061  1  0.46162840  0.44788780  0.33414600  1
  O  O2062  1  0.46162840  0.44788780  0.53414600  1
  O  O2063  1  0.46162840  0.44788780  0.73414600  1
  O  O2064  1  0.46162840  0.44788780  0.93414600  1
  O  O2065  1  0.46162840  0.64788780  0.13414600  1
  O  O2066  1  0.46162840  0.64788780  0.33414600  1
  O  O2067  1  0.46162840  0.64788780  0.53414600  1
  O  O2068  1  0.46162840  0.64788780  0.73414600  1
  O  O2069  1  0.46162840  0.64788780  0.93414600  1
  O  O2070  1  0.46162840  0.84788780  0.13414600  1
  O  O2071  1  0.46162840  0.84788780  0.33414600  1
  O  O2072  1  0.46162840  0.84788780  0.53414600  1
  O  O2073  1  0.46162840  0.84788780  0.73414600  1
  O  O2074  1  0.46162840  0.84788780  0.93414600  1
  O  O2075  1  0.66162840  0.04788780  0.13414600  1
  O  O2076  1  0.66162840  0.04788780  0.33414600  1
  O  O2077  1  0.66162840  0.04788780  0.53414600  1
  O  O2078  1  0.66162840  0.04788780  0.73414600  1
  O  O2079  1  0.66162840  0.04788780  0.93414600  1
  O  O2080  1  0.66162840  0.24788780  0.13414600  1
  O  O2081  1  0.66162840  0.24788780  0.33414600  1
  O  O2082  1  0.66162840  0.24788780  0.53414600  1
  O  O2083  1  0.66162840  0.24788780  0.73414600  1
  O  O2084  1  0.66162840  0.24788780  0.93414600  1
  O  O2085  1  0.66162840  0.44788780  0.13414600  1
  O  O2086  1  0.66162840  0.44788780  0.33414600  1
  O  O2087  1  0.66162840  0.44788780  0.53414600  1
  O  O2088  1  0.66162840  0.44788780  0.73414600  1
  O  O2089  1  0.66162840  0.44788780  0.93414600  1
  O  O2090  1  0.66162840  0.64788780  0.13414600  1
  O  O2091  1  0.66162840  0.64788780  0.33414600  1
  O  O2092  1  0.66162840  0.64788780  0.53414600  1
  O  O2093  1  0.66162840  0.64788780  0.73414600  1
  O  O2094  1  0.66162840  0.64788780  0.93414600  1
  O  O2095  1  0.66162840  0.84788780  0.13414600  1
  O  O2096  1  0.66162840  0.84788780  0.33414600  1
  O  O2097  1  0.66162840  0.84788780  0.53414600  1
  O  O2098  1  0.66162840  0.84788780  0.73414600  1
  O  O2099  1  0.66162840  0.84788780  0.93414600  1
  O  O2100  1  0.86162840  0.04788780  0.13414600  1
  O  O2101  1  0.86162840  0.04788780  0.33414600  1
  O  O2102  1  0.86162840  0.04788780  0.53414600  1
  O  O2103  1  0.86162840  0.04788780  0.73414600  1
  O  O2104  1  0.86162840  0.04788780  0.93414600  1
  O  O2105  1  0.86162840  0.24788780  0.13414600  1
  O  O2106  1  0.86162840  0.24788780  0.33414600  1
  O  O2107  1  0.86162840  0.24788780  0.53414600  1
  O  O2108  1  0.86162840  0.24788780  0.73414600  1
  O  O2109  1  0.86162840  0.24788780  0.93414600  1
  O  O2110  1  0.86162840  0.44788780  0.13414600  1
  O  O2111  1  0.86162840  0.44788780  0.33414600  1
  O  O2112  1  0.86162840  0.44788780  0.53414600  1
  O  O2113  1  0.86162840  0.44788780  0.73414600  1
  O  O2114  1  0.86162840  0.44788780  0.93414600  1
  O  O2115  1  0.86162840  0.64788780  0.13414600  1
  O  O2116  1  0.86162840  0.64788780  0.33414600  1
  O  O2117  1  0.86162840  0.64788780  0.53414600  1
  O  O2118  1  0.86162840  0.64788780  0.73414600  1
  O  O2119  1  0.86162840  0.64788780  0.93414600  1
  O  O2120  1  0.86162840  0.84788780  0.13414600  1
  O  O2121  1  0.86162840  0.84788780  0.33414600  1
  O  O2122  1  0.86162840  0.84788780  0.53414600  1
  O  O2123  1  0.86162840  0.84788780  0.73414600  1
  O  O2124  1  0.86162840  0.84788780  0.93414600  1
  O  O2125  1  0.18625940  0.13837160  0.06747920  1
  O  O2126  1  0.18625940  0.13837160  0.26747920  1
  O  O2127  1  0.18625940  0.13837160  0.46747920  1
  O  O2128  1  0.18625940  0.13837160  0.66747920  1
  O  O2129  1  0.18625940  0.13837160  0.86747920  1
  O  O2130  1  0.18625940  0.33837160  0.06747920  1
  O  O2131  1  0.18625940  0.33837160  0.26747920  1
  O  O2132  1  0.18625940  0.33837160  0.46747920  1
  O  O2133  1  0.18625940  0.33837160  0.66747920  1
  O  O2134  1  0.18625940  0.33837160  0.86747920  1
  O  O2135  1  0.18625940  0.53837160  0.06747920  1
  O  O2136  1  0.18625940  0.53837160  0.26747920  1
  O  O2137  1  0.18625940  0.53837160  0.46747920  1
  O  O2138  1  0.18625940  0.53837160  0.66747920  1
  O  O2139  1  0.18625940  0.53837160  0.86747920  1
  O  O2140  1  0.18625940  0.73837160  0.06747920  1
  O  O2141  1  0.18625940  0.73837160  0.26747920  1
  O  O2142  1  0.18625940  0.73837160  0.46747920  1
  O  O2143  1  0.18625940  0.73837160  0.66747920  1
  O  O2144  1  0.18625940  0.73837160  0.86747920  1
  O  O2145  1  0.18625940  0.93837160  0.06747920  1
  O  O2146  1  0.18625940  0.93837160  0.26747920  1
  O  O2147  1  0.18625940  0.93837160  0.46747920  1
  O  O2148  1  0.18625940  0.93837160  0.66747920  1
  O  O2149  1  0.18625940  0.93837160  0.86747920  1
  O  O2150  1  0.38625940  0.13837160  0.06747920  1
  O  O2151  1  0.38625940  0.13837160  0.26747920  1
  O  O2152  1  0.38625940  0.13837160  0.46747920  1
  O  O2153  1  0.38625940  0.13837160  0.66747920  1
  O  O2154  1  0.38625940  0.13837160  0.86747920  1
  O  O2155  1  0.38625940  0.33837160  0.06747920  1
  O  O2156  1  0.38625940  0.33837160  0.26747920  1
  O  O2157  1  0.38625940  0.33837160  0.46747920  1
  O  O2158  1  0.38625940  0.33837160  0.66747920  1
  O  O2159  1  0.38625940  0.33837160  0.86747920  1
  O  O2160  1  0.38625940  0.53837160  0.06747920  1
  O  O2161  1  0.38625940  0.53837160  0.26747920  1
  O  O2162  1  0.38625940  0.53837160  0.46747920  1
  O  O2163  1  0.38625940  0.53837160  0.66747920  1
  O  O2164  1  0.38625940  0.53837160  0.86747920  1
  O  O2165  1  0.38625940  0.73837160  0.06747920  1
  O  O2166  1  0.38625940  0.73837160  0.26747920  1
  O  O2167  1  0.38625940  0.73837160  0.46747920  1
  O  O2168  1  0.38625940  0.73837160  0.66747920  1
  O  O2169  1  0.38625940  0.73837160  0.86747920  1
  O  O2170  1  0.38625940  0.93837160  0.06747920  1
  O  O2171  1  0.38625940  0.93837160  0.26747920  1
  O  O2172  1  0.38625940  0.93837160  0.46747920  1
  O  O2173  1  0.38625940  0.93837160  0.66747920  1
  O  O2174  1  0.38625940  0.93837160  0.86747920  1
  O  O2175  1  0.58625940  0.13837160  0.06747920  1
  O  O2176  1  0.58625940  0.13837160  0.26747920  1
  O  O2177  1  0.58625940  0.13837160  0.46747920  1
  O  O2178  1  0.58625940  0.13837160  0.66747920  1
  O  O2179  1  0.58625940  0.13837160  0.86747920  1
  O  O2180  1  0.58625940  0.33837160  0.06747920  1
  O  O2181  1  0.58625940  0.33837160  0.26747920  1
  O  O2182  1  0.58625940  0.33837160  0.46747920  1
  O  O2183  1  0.58625940  0.33837160  0.66747920  1
  O  O2184  1  0.58625940  0.33837160  0.86747920  1
  O  O2185  1  0.58625940  0.53837160  0.06747920  1
  O  O2186  1  0.58625940  0.53837160  0.26747920  1
  O  O2187  1  0.58625940  0.53837160  0.46747920  1
  O  O2188  1  0.58625940  0.53837160  0.66747920  1
  O  O2189  1  0.58625940  0.53837160  0.86747920  1
  O  O2190  1  0.58625940  0.73837160  0.06747920  1
  O  O2191  1  0.58625940  0.73837160  0.26747920  1
  O  O2192  1  0.58625940  0.73837160  0.46747920  1
  O  O2193  1  0.58625940  0.73837160  0.66747920  1
  O  O2194  1  0.58625940  0.73837160  0.86747920  1
  O  O2195  1  0.58625940  0.93837160  0.06747920  1
  O  O2196  1  0.58625940  0.93837160  0.26747920  1
  O  O2197  1  0.58625940  0.93837160  0.46747920  1
  O  O2198  1  0.58625940  0.93837160  0.66747920  1
  O  O2199  1  0.58625940  0.93837160  0.86747920  1
  O  O2200  1  0.78625940  0.13837160  0.06747920  1
  O  O2201  1  0.78625940  0.13837160  0.26747920  1
  O  O2202  1  0.78625940  0.13837160  0.46747920  1
  O  O2203  1  0.78625940  0.13837160  0.66747920  1
  O  O2204  1  0.78625940  0.13837160  0.86747920  1
  O  O2205  1  0.78625940  0.33837160  0.06747920  1
  O  O2206  1  0.78625940  0.33837160  0.26747920  1
  O  O2207  1  0.78625940  0.33837160  0.46747920  1
  O  O2208  1  0.78625940  0.33837160  0.66747920  1
  O  O2209  1  0.78625940  0.33837160  0.86747920  1
  O  O2210  1  0.78625940  0.53837160  0.06747920  1
  O  O2211  1  0.78625940  0.53837160  0.26747920  1
  O  O2212  1  0.78625940  0.53837160  0.46747920  1
  O  O2213  1  0.78625940  0.53837160  0.66747920  1
  O  O2214  1  0.78625940  0.53837160  0.86747920  1
  O  O2215  1  0.78625940  0.73837160  0.06747920  1
  O  O2216  1  0.78625940  0.73837160  0.26747920  1
  O  O2217  1  0.78625940  0.73837160  0.46747920  1
  O  O2218  1  0.78625940  0.73837160  0.66747920  1
  O  O2219  1  0.78625940  0.73837160  0.86747920  1
  O  O2220  1  0.78625940  0.93837160  0.06747920  1
  O  O2221  1  0.78625940  0.93837160  0.26747920  1
  O  O2222  1  0.78625940  0.93837160  0.46747920  1
  O  O2223  1  0.78625940  0.93837160  0.66747920  1
  O  O2224  1  0.78625940  0.93837160  0.86747920  1
  O  O2225  1  0.98625940  0.13837160  0.06747920  1
  O  O2226  1  0.98625940  0.13837160  0.26747920  1
  O  O2227  1  0.98625940  0.13837160  0.46747920  1
  O  O2228  1  0.98625940  0.13837160  0.66747920  1
  O  O2229  1  0.98625940  0.13837160  0.86747920  1
  O  O2230  1  0.98625940  0.33837160  0.06747920  1
  O  O2231  1  0.98625940  0.33837160  0.26747920  1
  O  O2232  1  0.98625940  0.33837160  0.46747920  1
  O  O2233  1  0.98625940  0.33837160  0.66747920  1
  O  O2234  1  0.98625940  0.33837160  0.86747920  1
  O  O2235  1  0.98625940  0.53837160  0.06747920  1
  O  O2236  1  0.98625940  0.53837160  0.26747920  1
  O  O2237  1  0.98625940  0.53837160  0.46747920  1
  O  O2238  1  0.98625940  0.53837160  0.66747920  1
  O  O2239  1  0.98625940  0.53837160  0.86747920  1
  O  O2240  1  0.98625940  0.73837160  0.06747920  1
  O  O2241  1  0.98625940  0.73837160  0.26747920  1
  O  O2242  1  0.98625940  0.73837160  0.46747920  1
  O  O2243  1  0.98625940  0.73837160  0.66747920  1
  O  O2244  1  0.98625940  0.73837160  0.86747920  1
  O  O2245  1  0.98625940  0.93837160  0.06747920  1
  O  O2246  1  0.98625940  0.93837160  0.26747920  1
  O  O2247  1  0.98625940  0.93837160  0.46747920  1
  O  O2248  1  0.98625940  0.93837160  0.66747920  1
  O  O2249  1  0.98625940  0.93837160  0.86747920  1
  O  O2250  1  0.00718240  0.09728940  0.11197040  1
  O  O2251  1  0.00718240  0.09728940  0.31197040  1
  O  O2252  1  0.00718240  0.09728940  0.51197040  1
  O  O2253  1  0.00718240  0.09728940  0.71197040  1
  O  O2254  1  0.00718240  0.09728940  0.91197040  1
  O  O2255  1  0.00718240  0.29728940  0.11197040  1
  O  O2256  1  0.00718240  0.29728940  0.31197040  1
  O  O2257  1  0.00718240  0.29728940  0.51197040  1
  O  O2258  1  0.00718240  0.29728940  0.71197040  1
  O  O2259  1  0.00718240  0.29728940  0.91197040  1
  O  O2260  1  0.00718240  0.49728940  0.11197040  1
  O  O2261  1  0.00718240  0.49728940  0.31197040  1
  O  O2262  1  0.00718240  0.49728940  0.51197040  1
  O  O2263  1  0.00718240  0.49728940  0.71197040  1
  O  O2264  1  0.00718240  0.49728940  0.91197040  1
  O  O2265  1  0.00718240  0.69728940  0.11197040  1
  O  O2266  1  0.00718240  0.69728940  0.31197040  1
  O  O2267  1  0.00718240  0.69728940  0.51197040  1
  O  O2268  1  0.00718240  0.69728940  0.71197040  1
  O  O2269  1  0.00718240  0.69728940  0.91197040  1
  O  O2270  1  0.00718240  0.89728940  0.11197040  1
  O  O2271  1  0.00718240  0.89728940  0.31197040  1
  O  O2272  1  0.00718240  0.89728940  0.51197040  1
  O  O2273  1  0.00718240  0.89728940  0.71197040  1
  O  O2274  1  0.00718240  0.89728940  0.91197040  1
  O  O2275  1  0.20718240  0.09728940  0.11197040  1
  O  O2276  1  0.20718240  0.09728940  0.31197040  1
  O  O2277  1  0.20718240  0.09728940  0.51197040  1
  O  O2278  1  0.20718240  0.09728940  0.71197040  1
  O  O2279  1  0.20718240  0.09728940  0.91197040  1
  O  O2280  1  0.20718240  0.29728940  0.11197040  1
  O  O2281  1  0.20718240  0.29728940  0.31197040  1
  O  O2282  1  0.20718240  0.29728940  0.51197040  1
  O  O2283  1  0.20718240  0.29728940  0.71197040  1
  O  O2284  1  0.20718240  0.29728940  0.91197040  1
  O  O2285  1  0.20718240  0.49728940  0.11197040  1
  O  O2286  1  0.20718240  0.49728940  0.31197040  1
  O  O2287  1  0.20718240  0.49728940  0.51197040  1
  O  O2288  1  0.20718240  0.49728940  0.71197040  1
  O  O2289  1  0.20718240  0.49728940  0.91197040  1
  O  O2290  1  0.20718240  0.69728940  0.11197040  1
  O  O2291  1  0.20718240  0.69728940  0.31197040  1
  O  O2292  1  0.20718240  0.69728940  0.51197040  1
  O  O2293  1  0.20718240  0.69728940  0.71197040  1
  O  O2294  1  0.20718240  0.69728940  0.91197040  1
  O  O2295  1  0.20718240  0.89728940  0.11197040  1
  O  O2296  1  0.20718240  0.89728940  0.31197040  1
  O  O2297  1  0.20718240  0.89728940  0.51197040  1
  O  O2298  1  0.20718240  0.89728940  0.71197040  1
  O  O2299  1  0.20718240  0.89728940  0.91197040  1
  O  O2300  1  0.40718240  0.09728940  0.11197040  1
  O  O2301  1  0.40718240  0.09728940  0.31197040  1
  O  O2302  1  0.40718240  0.09728940  0.51197040  1
  O  O2303  1  0.40718240  0.09728940  0.71197040  1
  O  O2304  1  0.40718240  0.09728940  0.91197040  1
  O  O2305  1  0.40718240  0.29728940  0.11197040  1
  O  O2306  1  0.40718240  0.29728940  0.31197040  1
  O  O2307  1  0.40718240  0.29728940  0.51197040  1
  O  O2308  1  0.40718240  0.29728940  0.71197040  1
  O  O2309  1  0.40718240  0.29728940  0.91197040  1
  O  O2310  1  0.40718240  0.49728940  0.11197040  1
  O  O2311  1  0.40718240  0.49728940  0.31197040  1
  O  O2312  1  0.40718240  0.49728940  0.51197040  1
  O  O2313  1  0.40718240  0.49728940  0.71197040  1
  O  O2314  1  0.40718240  0.49728940  0.91197040  1
  O  O2315  1  0.40718240  0.69728940  0.11197040  1
  O  O2316  1  0.40718240  0.69728940  0.31197040  1
  O  O2317  1  0.40718240  0.69728940  0.51197040  1
  O  O2318  1  0.40718240  0.69728940  0.71197040  1
  O  O2319  1  0.40718240  0.69728940  0.91197040  1
  O  O2320  1  0.40718240  0.89728940  0.11197040  1
  O  O2321  1  0.40718240  0.89728940  0.31197040  1
  O  O2322  1  0.40718240  0.89728940  0.51197040  1
  O  O2323  1  0.40718240  0.89728940  0.71197040  1
  O  O2324  1  0.40718240  0.89728940  0.91197040  1
  O  O2325  1  0.60718240  0.09728940  0.11197040  1
  O  O2326  1  0.60718240  0.09728940  0.31197040  1
  O  O2327  1  0.60718240  0.09728940  0.51197040  1
  O  O2328  1  0.60718240  0.09728940  0.71197040  1
  O  O2329  1  0.60718240  0.09728940  0.91197040  1
  O  O2330  1  0.60718240  0.29728940  0.11197040  1
  O  O2331  1  0.60718240  0.29728940  0.31197040  1
  O  O2332  1  0.60718240  0.29728940  0.51197040  1
  O  O2333  1  0.60718240  0.29728940  0.71197040  1
  O  O2334  1  0.60718240  0.29728940  0.91197040  1
  O  O2335  1  0.60718240  0.49728940  0.11197040  1
  O  O2336  1  0.60718240  0.49728940  0.31197040  1
  O  O2337  1  0.60718240  0.49728940  0.51197040  1
  O  O2338  1  0.60718240  0.49728940  0.71197040  1
  O  O2339  1  0.60718240  0.49728940  0.91197040  1
  O  O2340  1  0.60718240  0.69728940  0.11197040  1
  O  O2341  1  0.60718240  0.69728940  0.31197040  1
  O  O2342  1  0.60718240  0.69728940  0.51197040  1
  O  O2343  1  0.60718240  0.69728940  0.71197040  1
  O  O2344  1  0.60718240  0.69728940  0.91197040  1
  O  O2345  1  0.60718240  0.89728940  0.11197040  1
  O  O2346  1  0.60718240  0.89728940  0.31197040  1
  O  O2347  1  0.60718240  0.89728940  0.51197040  1
  O  O2348  1  0.60718240  0.89728940  0.71197040  1
  O  O2349  1  0.60718240  0.89728940  0.91197040  1
  O  O2350  1  0.80718240  0.09728940  0.11197040  1
  O  O2351  1  0.80718240  0.09728940  0.31197040  1
  O  O2352  1  0.80718240  0.09728940  0.51197040  1
  O  O2353  1  0.80718240  0.09728940  0.71197040  1
  O  O2354  1  0.80718240  0.09728940  0.91197040  1
  O  O2355  1  0.80718240  0.29728940  0.11197040  1
  O  O2356  1  0.80718240  0.29728940  0.31197040  1
  O  O2357  1  0.80718240  0.29728940  0.51197040  1
  O  O2358  1  0.80718240  0.29728940  0.71197040  1
  O  O2359  1  0.80718240  0.29728940  0.91197040  1
  O  O2360  1  0.80718240  0.49728940  0.11197040  1
  O  O2361  1  0.80718240  0.49728940  0.31197040  1
  O  O2362  1  0.80718240  0.49728940  0.51197040  1
  O  O2363  1  0.80718240  0.49728940  0.71197040  1
  O  O2364  1  0.80718240  0.49728940  0.91197040  1
  O  O2365  1  0.80718240  0.69728940  0.11197040  1
  O  O2366  1  0.80718240  0.69728940  0.31197040  1
  O  O2367  1  0.80718240  0.69728940  0.51197040  1
  O  O2368  1  0.80718240  0.69728940  0.71197040  1
  O  O2369  1  0.80718240  0.69728940  0.91197040  1
  O  O2370  1  0.80718240  0.89728940  0.11197040  1
  O  O2371  1  0.80718240  0.89728940  0.31197040  1
  O  O2372  1  0.80718240  0.89728940  0.51197040  1
  O  O2373  1  0.80718240  0.89728940  0.71197040  1
  O  O2374  1  0.80718240  0.89728940  0.91197040  1
  O  O2375  1  0.09728940  0.00718240  0.08802960  1
  O  O2376  1  0.09728940  0.00718240  0.28802960  1
  O  O2377  1  0.09728940  0.00718240  0.48802960  1
  O  O2378  1  0.09728940  0.00718240  0.68802960  1
  O  O2379  1  0.09728940  0.00718240  0.88802960  1
  O  O2380  1  0.09728940  0.20718240  0.08802960  1
  O  O2381  1  0.09728940  0.20718240  0.28802960  1
  O  O2382  1  0.09728940  0.20718240  0.48802960  1
  O  O2383  1  0.09728940  0.20718240  0.68802960  1
  O  O2384  1  0.09728940  0.20718240  0.88802960  1
  O  O2385  1  0.09728940  0.40718240  0.08802960  1
  O  O2386  1  0.09728940  0.40718240  0.28802960  1
  O  O2387  1  0.09728940  0.40718240  0.48802960  1
  O  O2388  1  0.09728940  0.40718240  0.68802960  1
  O  O2389  1  0.09728940  0.40718240  0.88802960  1
  O  O2390  1  0.09728940  0.60718240  0.08802960  1
  O  O2391  1  0.09728940  0.60718240  0.28802960  1
  O  O2392  1  0.09728940  0.60718240  0.48802960  1
  O  O2393  1  0.09728940  0.60718240  0.68802960  1
  O  O2394  1  0.09728940  0.60718240  0.88802960  1
  O  O2395  1  0.09728940  0.80718240  0.08802960  1
  O  O2396  1  0.09728940  0.80718240  0.28802960  1
  O  O2397  1  0.09728940  0.80718240  0.48802960  1
  O  O2398  1  0.09728940  0.80718240  0.68802960  1
  O  O2399  1  0.09728940  0.80718240  0.88802960  1
  O  O2400  1  0.29728940  0.00718240  0.08802960  1
  O  O2401  1  0.29728940  0.00718240  0.28802960  1
  O  O2402  1  0.29728940  0.00718240  0.48802960  1
  O  O2403  1  0.29728940  0.00718240  0.68802960  1
  O  O2404  1  0.29728940  0.00718240  0.88802960  1
  O  O2405  1  0.29728940  0.20718240  0.08802960  1
  O  O2406  1  0.29728940  0.20718240  0.28802960  1
  O  O2407  1  0.29728940  0.20718240  0.48802960  1
  O  O2408  1  0.29728940  0.20718240  0.68802960  1
  O  O2409  1  0.29728940  0.20718240  0.88802960  1
  O  O2410  1  0.29728940  0.40718240  0.08802960  1
  O  O2411  1  0.29728940  0.40718240  0.28802960  1
  O  O2412  1  0.29728940  0.40718240  0.48802960  1
  O  O2413  1  0.29728940  0.40718240  0.68802960  1
  O  O2414  1  0.29728940  0.40718240  0.88802960  1
  O  O2415  1  0.29728940  0.60718240  0.08802960  1
  O  O2416  1  0.29728940  0.60718240  0.28802960  1
  O  O2417  1  0.29728940  0.60718240  0.48802960  1
  O  O2418  1  0.29728940  0.60718240  0.68802960  1
  O  O2419  1  0.29728940  0.60718240  0.88802960  1
  O  O2420  1  0.29728940  0.80718240  0.08802960  1
  O  O2421  1  0.29728940  0.80718240  0.28802960  1
  O  O2422  1  0.29728940  0.80718240  0.48802960  1
  O  O2423  1  0.29728940  0.80718240  0.68802960  1
  O  O2424  1  0.29728940  0.80718240  0.88802960  1
  O  O2425  1  0.49728940  0.00718240  0.08802960  1
  O  O2426  1  0.49728940  0.00718240  0.28802960  1
  O  O2427  1  0.49728940  0.00718240  0.48802960  1
  O  O2428  1  0.49728940  0.00718240  0.68802960  1
  O  O2429  1  0.49728940  0.00718240  0.88802960  1
  O  O2430  1  0.49728940  0.20718240  0.08802960  1
  O  O2431  1  0.49728940  0.20718240  0.28802960  1
  O  O2432  1  0.49728940  0.20718240  0.48802960  1
  O  O2433  1  0.49728940  0.20718240  0.68802960  1
  O  O2434  1  0.49728940  0.20718240  0.88802960  1
  O  O2435  1  0.49728940  0.40718240  0.08802960  1
  O  O2436  1  0.49728940  0.40718240  0.28802960  1
  O  O2437  1  0.49728940  0.40718240  0.48802960  1
  O  O2438  1  0.49728940  0.40718240  0.68802960  1
  O  O2439  1  0.49728940  0.40718240  0.88802960  1
  O  O2440  1  0.49728940  0.60718240  0.08802960  1
  O  O2441  1  0.49728940  0.60718240  0.28802960  1
  O  O2442  1  0.49728940  0.60718240  0.48802960  1
  O  O2443  1  0.49728940  0.60718240  0.68802960  1
  O  O2444  1  0.49728940  0.60718240  0.88802960  1
  O  O2445  1  0.49728940  0.80718240  0.08802960  1
  O  O2446  1  0.49728940  0.80718240  0.28802960  1
  O  O2447  1  0.49728940  0.80718240  0.48802960  1
  O  O2448  1  0.49728940  0.80718240  0.68802960  1
  O  O2449  1  0.49728940  0.80718240  0.88802960  1
  O  O2450  1  0.69728940  0.00718240  0.08802960  1
  O  O2451  1  0.69728940  0.00718240  0.28802960  1
  O  O2452  1  0.69728940  0.00718240  0.48802960  1
  O  O2453  1  0.69728940  0.00718240  0.68802960  1
  O  O2454  1  0.69728940  0.00718240  0.88802960  1
  O  O2455  1  0.69728940  0.20718240  0.08802960  1
  O  O2456  1  0.69728940  0.20718240  0.28802960  1
  O  O2457  1  0.69728940  0.20718240  0.48802960  1
  O  O2458  1  0.69728940  0.20718240  0.68802960  1
  O  O2459  1  0.69728940  0.20718240  0.88802960  1
  O  O2460  1  0.69728940  0.40718240  0.08802960  1
  O  O2461  1  0.69728940  0.40718240  0.28802960  1
  O  O2462  1  0.69728940  0.40718240  0.48802960  1
  O  O2463  1  0.69728940  0.40718240  0.68802960  1
  O  O2464  1  0.69728940  0.40718240  0.88802960  1
  O  O2465  1  0.69728940  0.60718240  0.08802960  1
  O  O2466  1  0.69728940  0.60718240  0.28802960  1
  O  O2467  1  0.69728940  0.60718240  0.48802960  1
  O  O2468  1  0.69728940  0.60718240  0.68802960  1
  O  O2469  1  0.69728940  0.60718240  0.88802960  1
  O  O2470  1  0.69728940  0.80718240  0.08802960  1
  O  O2471  1  0.69728940  0.80718240  0.28802960  1
  O  O2472  1  0.69728940  0.80718240  0.48802960  1
  O  O2473  1  0.69728940  0.80718240  0.68802960  1
  O  O2474  1  0.69728940  0.80718240  0.88802960  1
  O  O2475  1  0.89728940  0.00718240  0.08802960  1
  O  O2476  1  0.89728940  0.00718240  0.28802960  1
  O  O2477  1  0.89728940  0.00718240  0.48802960  1
  O  O2478  1  0.89728940  0.00718240  0.68802960  1
  O  O2479  1  0.89728940  0.00718240  0.88802960  1
  O  O2480  1  0.89728940  0.20718240  0.08802960  1
  O  O2481  1  0.89728940  0.20718240  0.28802960  1
  O  O2482  1  0.89728940  0.20718240  0.48802960  1
  O  O2483  1  0.89728940  0.20718240  0.68802960  1
  O  O2484  1  0.89728940  0.20718240  0.88802960  1
  O  O2485  1  0.89728940  0.40718240  0.08802960  1
  O  O2486  1  0.89728940  0.40718240  0.28802960  1
  O  O2487  1  0.89728940  0.40718240  0.48802960  1
  O  O2488  1  0.89728940  0.40718240  0.68802960  1
  O  O2489  1  0.89728940  0.40718240  0.88802960  1
  O  O2490  1  0.89728940  0.60718240  0.08802960  1
  O  O2491  1  0.89728940  0.60718240  0.28802960  1
  O  O2492  1  0.89728940  0.60718240  0.48802960  1
  O  O2493  1  0.89728940  0.60718240  0.68802960  1
  O  O2494  1  0.89728940  0.60718240  0.88802960  1
  O  O2495  1  0.89728940  0.80718240  0.08802960  1
  O  O2496  1  0.89728940  0.80718240  0.28802960  1
  O  O2497  1  0.89728940  0.80718240  0.48802960  1
  O  O2498  1  0.89728940  0.80718240  0.68802960  1
  O  O2499  1  0.89728940  0.80718240  0.88802960  1
  O  O2500  1  0.19281760  0.09010700  0.15469620  1
  O  O2501  1  0.19281760  0.09010700  0.35469620  1
  O  O2502  1  0.19281760  0.09010700  0.55469620  1
  O  O2503  1  0.19281760  0.09010700  0.75469620  1
  O  O2504  1  0.19281760  0.09010700  0.95469620  1
  O  O2505  1  0.19281760  0.29010700  0.15469620  1
  O  O2506  1  0.19281760  0.29010700  0.35469620  1
  O  O2507  1  0.19281760  0.29010700  0.55469620  1
  O  O2508  1  0.19281760  0.29010700  0.75469620  1
  O  O2509  1  0.19281760  0.29010700  0.95469620  1
  O  O2510  1  0.19281760  0.49010700  0.15469620  1
  O  O2511  1  0.19281760  0.49010700  0.35469620  1
  O  O2512  1  0.19281760  0.49010700  0.55469620  1
  O  O2513  1  0.19281760  0.49010700  0.75469620  1
  O  O2514  1  0.19281760  0.49010700  0.95469620  1
  O  O2515  1  0.19281760  0.69010700  0.15469620  1
  O  O2516  1  0.19281760  0.69010700  0.35469620  1
  O  O2517  1  0.19281760  0.69010700  0.55469620  1
  O  O2518  1  0.19281760  0.69010700  0.75469620  1
  O  O2519  1  0.19281760  0.69010700  0.95469620  1
  O  O2520  1  0.19281760  0.89010700  0.15469620  1
  O  O2521  1  0.19281760  0.89010700  0.35469620  1
  O  O2522  1  0.19281760  0.89010700  0.55469620  1
  O  O2523  1  0.19281760  0.89010700  0.75469620  1
  O  O2524  1  0.19281760  0.89010700  0.95469620  1
  O  O2525  1  0.39281760  0.09010700  0.15469620  1
  O  O2526  1  0.39281760  0.09010700  0.35469620  1
  O  O2527  1  0.39281760  0.09010700  0.55469620  1
  O  O2528  1  0.39281760  0.09010700  0.75469620  1
  O  O2529  1  0.39281760  0.09010700  0.95469620  1
  O  O2530  1  0.39281760  0.29010700  0.15469620  1
  O  O2531  1  0.39281760  0.29010700  0.35469620  1
  O  O2532  1  0.39281760  0.29010700  0.55469620  1
  O  O2533  1  0.39281760  0.29010700  0.75469620  1
  O  O2534  1  0.39281760  0.29010700  0.95469620  1
  O  O2535  1  0.39281760  0.49010700  0.15469620  1
  O  O2536  1  0.39281760  0.49010700  0.35469620  1
  O  O2537  1  0.39281760  0.49010700  0.55469620  1
  O  O2538  1  0.39281760  0.49010700  0.75469620  1
  O  O2539  1  0.39281760  0.49010700  0.95469620  1
  O  O2540  1  0.39281760  0.69010700  0.15469620  1
  O  O2541  1  0.39281760  0.69010700  0.35469620  1
  O  O2542  1  0.39281760  0.69010700  0.55469620  1
  O  O2543  1  0.39281760  0.69010700  0.75469620  1
  O  O2544  1  0.39281760  0.69010700  0.95469620  1
  O  O2545  1  0.39281760  0.89010700  0.15469620  1
  O  O2546  1  0.39281760  0.89010700  0.35469620  1
  O  O2547  1  0.39281760  0.89010700  0.55469620  1
  O  O2548  1  0.39281760  0.89010700  0.75469620  1
  O  O2549  1  0.39281760  0.89010700  0.95469620  1
  O  O2550  1  0.59281760  0.09010700  0.15469620  1
  O  O2551  1  0.59281760  0.09010700  0.35469620  1
  O  O2552  1  0.59281760  0.09010700  0.55469620  1
  O  O2553  1  0.59281760  0.09010700  0.75469620  1
  O  O2554  1  0.59281760  0.09010700  0.95469620  1
  O  O2555  1  0.59281760  0.29010700  0.15469620  1
  O  O2556  1  0.59281760  0.29010700  0.35469620  1
  O  O2557  1  0.59281760  0.29010700  0.55469620  1
  O  O2558  1  0.59281760  0.29010700  0.75469620  1
  O  O2559  1  0.59281760  0.29010700  0.95469620  1
  O  O2560  1  0.59281760  0.49010700  0.15469620  1
  O  O2561  1  0.59281760  0.49010700  0.35469620  1
  O  O2562  1  0.59281760  0.49010700  0.55469620  1
  O  O2563  1  0.59281760  0.49010700  0.75469620  1
  O  O2564  1  0.59281760  0.49010700  0.95469620  1
  O  O2565  1  0.59281760  0.69010700  0.15469620  1
  O  O2566  1  0.59281760  0.69010700  0.35469620  1
  O  O2567  1  0.59281760  0.69010700  0.55469620  1
  O  O2568  1  0.59281760  0.69010700  0.75469620  1
  O  O2569  1  0.59281760  0.69010700  0.95469620  1
  O  O2570  1  0.59281760  0.89010700  0.15469620  1
  O  O2571  1  0.59281760  0.89010700  0.35469620  1
  O  O2572  1  0.59281760  0.89010700  0.55469620  1
  O  O2573  1  0.59281760  0.89010700  0.75469620  1
  O  O2574  1  0.59281760  0.89010700  0.95469620  1
  O  O2575  1  0.79281760  0.09010700  0.15469620  1
  O  O2576  1  0.79281760  0.09010700  0.35469620  1
  O  O2577  1  0.79281760  0.09010700  0.55469620  1
  O  O2578  1  0.79281760  0.09010700  0.75469620  1
  O  O2579  1  0.79281760  0.09010700  0.95469620  1
  O  O2580  1  0.79281760  0.29010700  0.15469620  1
  O  O2581  1  0.79281760  0.29010700  0.35469620  1
  O  O2582  1  0.79281760  0.29010700  0.55469620  1
  O  O2583  1  0.79281760  0.29010700  0.75469620  1
  O  O2584  1  0.79281760  0.29010700  0.95469620  1
  O  O2585  1  0.79281760  0.49010700  0.15469620  1
  O  O2586  1  0.79281760  0.49010700  0.35469620  1
  O  O2587  1  0.79281760  0.49010700  0.55469620  1
  O  O2588  1  0.79281760  0.49010700  0.75469620  1
  O  O2589  1  0.79281760  0.49010700  0.95469620  1
  O  O2590  1  0.79281760  0.69010700  0.15469620  1
  O  O2591  1  0.79281760  0.69010700  0.35469620  1
  O  O2592  1  0.79281760  0.69010700  0.55469620  1
  O  O2593  1  0.79281760  0.69010700  0.75469620  1
  O  O2594  1  0.79281760  0.69010700  0.95469620  1
  O  O2595  1  0.79281760  0.89010700  0.15469620  1
  O  O2596  1  0.79281760  0.89010700  0.35469620  1
  O  O2597  1  0.79281760  0.89010700  0.55469620  1
  O  O2598  1  0.79281760  0.89010700  0.75469620  1
  O  O2599  1  0.79281760  0.89010700  0.95469620  1
  O  O2600  1  0.99281760  0.09010700  0.15469620  1
  O  O2601  1  0.99281760  0.09010700  0.35469620  1
  O  O2602  1  0.99281760  0.09010700  0.55469620  1
  O  O2603  1  0.99281760  0.09010700  0.75469620  1
  O  O2604  1  0.99281760  0.09010700  0.95469620  1
  O  O2605  1  0.99281760  0.29010700  0.15469620  1
  O  O2606  1  0.99281760  0.29010700  0.35469620  1
  O  O2607  1  0.99281760  0.29010700  0.55469620  1
  O  O2608  1  0.99281760  0.29010700  0.75469620  1
  O  O2609  1  0.99281760  0.29010700  0.95469620  1
  O  O2610  1  0.99281760  0.49010700  0.15469620  1
  O  O2611  1  0.99281760  0.49010700  0.35469620  1
  O  O2612  1  0.99281760  0.49010700  0.55469620  1
  O  O2613  1  0.99281760  0.49010700  0.75469620  1
  O  O2614  1  0.99281760  0.49010700  0.95469620  1
  O  O2615  1  0.99281760  0.69010700  0.15469620  1
  O  O2616  1  0.99281760  0.69010700  0.35469620  1
  O  O2617  1  0.99281760  0.69010700  0.55469620  1
  O  O2618  1  0.99281760  0.69010700  0.75469620  1
  O  O2619  1  0.99281760  0.69010700  0.95469620  1
  O  O2620  1  0.99281760  0.89010700  0.15469620  1
  O  O2621  1  0.99281760  0.89010700  0.35469620  1
  O  O2622  1  0.99281760  0.89010700  0.55469620  1
  O  O2623  1  0.99281760  0.89010700  0.75469620  1
  O  O2624  1  0.99281760  0.89010700  0.95469620  1
  O  O2625  1  0.10271060  0.10989300  0.17863700  1
  O  O2626  1  0.10271060  0.10989300  0.37863700  1
  O  O2627  1  0.10271060  0.10989300  0.57863700  1
  O  O2628  1  0.10271060  0.10989300  0.77863700  1
  O  O2629  1  0.10271060  0.10989300  0.97863700  1
  O  O2630  1  0.10271060  0.30989300  0.17863700  1
  O  O2631  1  0.10271060  0.30989300  0.37863700  1
  O  O2632  1  0.10271060  0.30989300  0.57863700  1
  O  O2633  1  0.10271060  0.30989300  0.77863700  1
  O  O2634  1  0.10271060  0.30989300  0.97863700  1
  O  O2635  1  0.10271060  0.50989300  0.17863700  1
  O  O2636  1  0.10271060  0.50989300  0.37863700  1
  O  O2637  1  0.10271060  0.50989300  0.57863700  1
  O  O2638  1  0.10271060  0.50989300  0.77863700  1
  O  O2639  1  0.10271060  0.50989300  0.97863700  1
  O  O2640  1  0.10271060  0.70989300  0.17863700  1
  O  O2641  1  0.10271060  0.70989300  0.37863700  1
  O  O2642  1  0.10271060  0.70989300  0.57863700  1
  O  O2643  1  0.10271060  0.70989300  0.77863700  1
  O  O2644  1  0.10271060  0.70989300  0.97863700  1
  O  O2645  1  0.10271060  0.90989300  0.17863700  1
  O  O2646  1  0.10271060  0.90989300  0.37863700  1
  O  O2647  1  0.10271060  0.90989300  0.57863700  1
  O  O2648  1  0.10271060  0.90989300  0.77863700  1
  O  O2649  1  0.10271060  0.90989300  0.97863700  1
  O  O2650  1  0.30271060  0.10989300  0.17863700  1
  O  O2651  1  0.30271060  0.10989300  0.37863700  1
  O  O2652  1  0.30271060  0.10989300  0.57863700  1
  O  O2653  1  0.30271060  0.10989300  0.77863700  1
  O  O2654  1  0.30271060  0.10989300  0.97863700  1
  O  O2655  1  0.30271060  0.30989300  0.17863700  1
  O  O2656  1  0.30271060  0.30989300  0.37863700  1
  O  O2657  1  0.30271060  0.30989300  0.57863700  1
  O  O2658  1  0.30271060  0.30989300  0.77863700  1
  O  O2659  1  0.30271060  0.30989300  0.97863700  1
  O  O2660  1  0.30271060  0.50989300  0.17863700  1
  O  O2661  1  0.30271060  0.50989300  0.37863700  1
  O  O2662  1  0.30271060  0.50989300  0.57863700  1
  O  O2663  1  0.30271060  0.50989300  0.77863700  1
  O  O2664  1  0.30271060  0.50989300  0.97863700  1
  O  O2665  1  0.30271060  0.70989300  0.17863700  1
  O  O2666  1  0.30271060  0.70989300  0.37863700  1
  O  O2667  1  0.30271060  0.70989300  0.57863700  1
  O  O2668  1  0.30271060  0.70989300  0.77863700  1
  O  O2669  1  0.30271060  0.70989300  0.97863700  1
  O  O2670  1  0.30271060  0.90989300  0.17863700  1
  O  O2671  1  0.30271060  0.90989300  0.37863700  1
  O  O2672  1  0.30271060  0.90989300  0.57863700  1
  O  O2673  1  0.30271060  0.90989300  0.77863700  1
  O  O2674  1  0.30271060  0.90989300  0.97863700  1
  O  O2675  1  0.50271060  0.10989300  0.17863700  1
  O  O2676  1  0.50271060  0.10989300  0.37863700  1
  O  O2677  1  0.50271060  0.10989300  0.57863700  1
  O  O2678  1  0.50271060  0.10989300  0.77863700  1
  O  O2679  1  0.50271060  0.10989300  0.97863700  1
  O  O2680  1  0.50271060  0.30989300  0.17863700  1
  O  O2681  1  0.50271060  0.30989300  0.37863700  1
  O  O2682  1  0.50271060  0.30989300  0.57863700  1
  O  O2683  1  0.50271060  0.30989300  0.77863700  1
  O  O2684  1  0.50271060  0.30989300  0.97863700  1
  O  O2685  1  0.50271060  0.50989300  0.17863700  1
  O  O2686  1  0.50271060  0.50989300  0.37863700  1
  O  O2687  1  0.50271060  0.50989300  0.57863700  1
  O  O2688  1  0.50271060  0.50989300  0.77863700  1
  O  O2689  1  0.50271060  0.50989300  0.97863700  1
  O  O2690  1  0.50271060  0.70989300  0.17863700  1
  O  O2691  1  0.50271060  0.70989300  0.37863700  1
  O  O2692  1  0.50271060  0.70989300  0.57863700  1
  O  O2693  1  0.50271060  0.70989300  0.77863700  1
  O  O2694  1  0.50271060  0.70989300  0.97863700  1
  O  O2695  1  0.50271060  0.90989300  0.17863700  1
  O  O2696  1  0.50271060  0.90989300  0.37863700  1
  O  O2697  1  0.50271060  0.90989300  0.57863700  1
  O  O2698  1  0.50271060  0.90989300  0.77863700  1
  O  O2699  1  0.50271060  0.90989300  0.97863700  1
  O  O2700  1  0.70271060  0.10989300  0.17863700  1
  O  O2701  1  0.70271060  0.10989300  0.37863700  1
  O  O2702  1  0.70271060  0.10989300  0.57863700  1
  O  O2703  1  0.70271060  0.10989300  0.77863700  1
  O  O2704  1  0.70271060  0.10989300  0.97863700  1
  O  O2705  1  0.70271060  0.30989300  0.17863700  1
  O  O2706  1  0.70271060  0.30989300  0.37863700  1
  O  O2707  1  0.70271060  0.30989300  0.57863700  1
  O  O2708  1  0.70271060  0.30989300  0.77863700  1
  O  O2709  1  0.70271060  0.30989300  0.97863700  1
  O  O2710  1  0.70271060  0.50989300  0.17863700  1
  O  O2711  1  0.70271060  0.50989300  0.37863700  1
  O  O2712  1  0.70271060  0.50989300  0.57863700  1
  O  O2713  1  0.70271060  0.50989300  0.77863700  1
  O  O2714  1  0.70271060  0.50989300  0.97863700  1
  O  O2715  1  0.70271060  0.70989300  0.17863700  1
  O  O2716  1  0.70271060  0.70989300  0.37863700  1
  O  O2717  1  0.70271060  0.70989300  0.57863700  1
  O  O2718  1  0.70271060  0.70989300  0.77863700  1
  O  O2719  1  0.70271060  0.70989300  0.97863700  1
  O  O2720  1  0.70271060  0.90989300  0.17863700  1
  O  O2721  1  0.70271060  0.90989300  0.37863700  1
  O  O2722  1  0.70271060  0.90989300  0.57863700  1
  O  O2723  1  0.70271060  0.90989300  0.77863700  1
  O  O2724  1  0.70271060  0.90989300  0.97863700  1
  O  O2725  1  0.90271060  0.10989300  0.17863700  1
  O  O2726  1  0.90271060  0.10989300  0.37863700  1
  O  O2727  1  0.90271060  0.10989300  0.57863700  1
  O  O2728  1  0.90271060  0.10989300  0.77863700  1
  O  O2729  1  0.90271060  0.10989300  0.97863700  1
  O  O2730  1  0.90271060  0.30989300  0.17863700  1
  O  O2731  1  0.90271060  0.30989300  0.37863700  1
  O  O2732  1  0.90271060  0.30989300  0.57863700  1
  O  O2733  1  0.90271060  0.30989300  0.77863700  1
  O  O2734  1  0.90271060  0.30989300  0.97863700  1
  O  O2735  1  0.90271060  0.50989300  0.17863700  1
  O  O2736  1  0.90271060  0.50989300  0.37863700  1
  O  O2737  1  0.90271060  0.50989300  0.57863700  1
  O  O2738  1  0.90271060  0.50989300  0.77863700  1
  O  O2739  1  0.90271060  0.50989300  0.97863700  1
  O  O2740  1  0.90271060  0.70989300  0.17863700  1
  O  O2741  1  0.90271060  0.70989300  0.37863700  1
  O  O2742  1  0.90271060  0.70989300  0.57863700  1
  O  O2743  1  0.90271060  0.70989300  0.77863700  1
  O  O2744  1  0.90271060  0.70989300  0.97863700  1
  O  O2745  1  0.90271060  0.90989300  0.17863700  1
  O  O2746  1  0.90271060  0.90989300  0.37863700  1
  O  O2747  1  0.90271060  0.90989300  0.57863700  1
  O  O2748  1  0.90271060  0.90989300  0.77863700  1
  O  O2749  1  0.90271060  0.90989300  0.97863700  1
  O  O2750  1  0.09010700  0.19281760  0.04530380  1
  O  O2751  1  0.09010700  0.19281760  0.24530380  1
  O  O2752  1  0.09010700  0.19281760  0.44530380  1
  O  O2753  1  0.09010700  0.19281760  0.64530380  1
  O  O2754  1  0.09010700  0.19281760  0.84530380  1
  O  O2755  1  0.09010700  0.39281760  0.04530380  1
  O  O2756  1  0.09010700  0.39281760  0.24530380  1
  O  O2757  1  0.09010700  0.39281760  0.44530380  1
  O  O2758  1  0.09010700  0.39281760  0.64530380  1
  O  O2759  1  0.09010700  0.39281760  0.84530380  1
  O  O2760  1  0.09010700  0.59281760  0.04530380  1
  O  O2761  1  0.09010700  0.59281760  0.24530380  1
  O  O2762  1  0.09010700  0.59281760  0.44530380  1
  O  O2763  1  0.09010700  0.59281760  0.64530380  1
  O  O2764  1  0.09010700  0.59281760  0.84530380  1
  O  O2765  1  0.09010700  0.79281760  0.04530380  1
  O  O2766  1  0.09010700  0.79281760  0.24530380  1
  O  O2767  1  0.09010700  0.79281760  0.44530380  1
  O  O2768  1  0.09010700  0.79281760  0.64530380  1
  O  O2769  1  0.09010700  0.79281760  0.84530380  1
  O  O2770  1  0.09010700  0.99281760  0.04530380  1
  O  O2771  1  0.09010700  0.99281760  0.24530380  1
  O  O2772  1  0.09010700  0.99281760  0.44530380  1
  O  O2773  1  0.09010700  0.99281760  0.64530380  1
  O  O2774  1  0.09010700  0.99281760  0.84530380  1
  O  O2775  1  0.29010700  0.19281760  0.04530380  1
  O  O2776  1  0.29010700  0.19281760  0.24530380  1
  O  O2777  1  0.29010700  0.19281760  0.44530380  1
  O  O2778  1  0.29010700  0.19281760  0.64530380  1
  O  O2779  1  0.29010700  0.19281760  0.84530380  1
  O  O2780  1  0.29010700  0.39281760  0.04530380  1
  O  O2781  1  0.29010700  0.39281760  0.24530380  1
  O  O2782  1  0.29010700  0.39281760  0.44530380  1
  O  O2783  1  0.29010700  0.39281760  0.64530380  1
  O  O2784  1  0.29010700  0.39281760  0.84530380  1
  O  O2785  1  0.29010700  0.59281760  0.04530380  1
  O  O2786  1  0.29010700  0.59281760  0.24530380  1
  O  O2787  1  0.29010700  0.59281760  0.44530380  1
  O  O2788  1  0.29010700  0.59281760  0.64530380  1
  O  O2789  1  0.29010700  0.59281760  0.84530380  1
  O  O2790  1  0.29010700  0.79281760  0.04530380  1
  O  O2791  1  0.29010700  0.79281760  0.24530380  1
  O  O2792  1  0.29010700  0.79281760  0.44530380  1
  O  O2793  1  0.29010700  0.79281760  0.64530380  1
  O  O2794  1  0.29010700  0.79281760  0.84530380  1
  O  O2795  1  0.29010700  0.99281760  0.04530380  1
  O  O2796  1  0.29010700  0.99281760  0.24530380  1
  O  O2797  1  0.29010700  0.99281760  0.44530380  1
  O  O2798  1  0.29010700  0.99281760  0.64530380  1
  O  O2799  1  0.29010700  0.99281760  0.84530380  1
  O  O2800  1  0.49010700  0.19281760  0.04530380  1
  O  O2801  1  0.49010700  0.19281760  0.24530380  1
  O  O2802  1  0.49010700  0.19281760  0.44530380  1
  O  O2803  1  0.49010700  0.19281760  0.64530380  1
  O  O2804  1  0.49010700  0.19281760  0.84530380  1
  O  O2805  1  0.49010700  0.39281760  0.04530380  1
  O  O2806  1  0.49010700  0.39281760  0.24530380  1
  O  O2807  1  0.49010700  0.39281760  0.44530380  1
  O  O2808  1  0.49010700  0.39281760  0.64530380  1
  O  O2809  1  0.49010700  0.39281760  0.84530380  1
  O  O2810  1  0.49010700  0.59281760  0.04530380  1
  O  O2811  1  0.49010700  0.59281760  0.24530380  1
  O  O2812  1  0.49010700  0.59281760  0.44530380  1
  O  O2813  1  0.49010700  0.59281760  0.64530380  1
  O  O2814  1  0.49010700  0.59281760  0.84530380  1
  O  O2815  1  0.49010700  0.79281760  0.04530380  1
  O  O2816  1  0.49010700  0.79281760  0.24530380  1
  O  O2817  1  0.49010700  0.79281760  0.44530380  1
  O  O2818  1  0.49010700  0.79281760  0.64530380  1
  O  O2819  1  0.49010700  0.79281760  0.84530380  1
  O  O2820  1  0.49010700  0.99281760  0.04530380  1
  O  O2821  1  0.49010700  0.99281760  0.24530380  1
  O  O2822  1  0.49010700  0.99281760  0.44530380  1
  O  O2823  1  0.49010700  0.99281760  0.64530380  1
  O  O2824  1  0.49010700  0.99281760  0.84530380  1
  O  O2825  1  0.69010700  0.19281760  0.04530380  1
  O  O2826  1  0.69010700  0.19281760  0.24530380  1
  O  O2827  1  0.69010700  0.19281760  0.44530380  1
  O  O2828  1  0.69010700  0.19281760  0.64530380  1
  O  O2829  1  0.69010700  0.19281760  0.84530380  1
  O  O2830  1  0.69010700  0.39281760  0.04530380  1
  O  O2831  1  0.69010700  0.39281760  0.24530380  1
  O  O2832  1  0.69010700  0.39281760  0.44530380  1
  O  O2833  1  0.69010700  0.39281760  0.64530380  1
  O  O2834  1  0.69010700  0.39281760  0.84530380  1
  O  O2835  1  0.69010700  0.59281760  0.04530380  1
  O  O2836  1  0.69010700  0.59281760  0.24530380  1
  O  O2837  1  0.69010700  0.59281760  0.44530380  1
  O  O2838  1  0.69010700  0.59281760  0.64530380  1
  O  O2839  1  0.69010700  0.59281760  0.84530380  1
  O  O2840  1  0.69010700  0.79281760  0.04530380  1
  O  O2841  1  0.69010700  0.79281760  0.24530380  1
  O  O2842  1  0.69010700  0.79281760  0.44530380  1
  O  O2843  1  0.69010700  0.79281760  0.64530380  1
  O  O2844  1  0.69010700  0.79281760  0.84530380  1
  O  O2845  1  0.69010700  0.99281760  0.04530380  1
  O  O2846  1  0.69010700  0.99281760  0.24530380  1
  O  O2847  1  0.69010700  0.99281760  0.44530380  1
  O  O2848  1  0.69010700  0.99281760  0.64530380  1
  O  O2849  1  0.69010700  0.99281760  0.84530380  1
  O  O2850  1  0.89010700  0.19281760  0.04530380  1
  O  O2851  1  0.89010700  0.19281760  0.24530380  1
  O  O2852  1  0.89010700  0.19281760  0.44530380  1
  O  O2853  1  0.89010700  0.19281760  0.64530380  1
  O  O2854  1  0.89010700  0.19281760  0.84530380  1
  O  O2855  1  0.89010700  0.39281760  0.04530380  1
  O  O2856  1  0.89010700  0.39281760  0.24530380  1
  O  O2857  1  0.89010700  0.39281760  0.44530380  1
  O  O2858  1  0.89010700  0.39281760  0.64530380  1
  O  O2859  1  0.89010700  0.39281760  0.84530380  1
  O  O2860  1  0.89010700  0.59281760  0.04530380  1
  O  O2861  1  0.89010700  0.59281760  0.24530380  1
  O  O2862  1  0.89010700  0.59281760  0.44530380  1
  O  O2863  1  0.89010700  0.59281760  0.64530380  1
  O  O2864  1  0.89010700  0.59281760  0.84530380  1
  O  O2865  1  0.89010700  0.79281760  0.04530380  1
  O  O2866  1  0.89010700  0.79281760  0.24530380  1
  O  O2867  1  0.89010700  0.79281760  0.44530380  1
  O  O2868  1  0.89010700  0.79281760  0.64530380  1
  O  O2869  1  0.89010700  0.79281760  0.84530380  1
  O  O2870  1  0.89010700  0.99281760  0.04530380  1
  O  O2871  1  0.89010700  0.99281760  0.24530380  1
  O  O2872  1  0.89010700  0.99281760  0.44530380  1
  O  O2873  1  0.89010700  0.99281760  0.64530380  1
  O  O2874  1  0.89010700  0.99281760  0.84530380  1
  O  O2875  1  0.15211220  0.01374060  0.00081260  1
  O  O2876  1  0.15211220  0.01374060  0.20081260  1
  O  O2877  1  0.15211220  0.01374060  0.40081260  1
  O  O2878  1  0.15211220  0.01374060  0.60081260  1
  O  O2879  1  0.15211220  0.01374060  0.80081260  1
  O  O2880  1  0.15211220  0.21374060  0.00081260  1
  O  O2881  1  0.15211220  0.21374060  0.20081260  1
  O  O2882  1  0.15211220  0.21374060  0.40081260  1
  O  O2883  1  0.15211220  0.21374060  0.60081260  1
  O  O2884  1  0.15211220  0.21374060  0.80081260  1
  O  O2885  1  0.15211220  0.41374060  0.00081260  1
  O  O2886  1  0.15211220  0.41374060  0.20081260  1
  O  O2887  1  0.15211220  0.41374060  0.40081260  1
  O  O2888  1  0.15211220  0.41374060  0.60081260  1
  O  O2889  1  0.15211220  0.41374060  0.80081260  1
  O  O2890  1  0.15211220  0.61374060  0.00081260  1
  O  O2891  1  0.15211220  0.61374060  0.20081260  1
  O  O2892  1  0.15211220  0.61374060  0.40081260  1
  O  O2893  1  0.15211220  0.61374060  0.60081260  1
  O  O2894  1  0.15211220  0.61374060  0.80081260  1
  O  O2895  1  0.15211220  0.81374060  0.00081260  1
  O  O2896  1  0.15211220  0.81374060  0.20081260  1
  O  O2897  1  0.15211220  0.81374060  0.40081260  1
  O  O2898  1  0.15211220  0.81374060  0.60081260  1
  O  O2899  1  0.15211220  0.81374060  0.80081260  1
  O  O2900  1  0.35211220  0.01374060  0.00081260  1
  O  O2901  1  0.35211220  0.01374060  0.20081260  1
  O  O2902  1  0.35211220  0.01374060  0.40081260  1
  O  O2903  1  0.35211220  0.01374060  0.60081260  1
  O  O2904  1  0.35211220  0.01374060  0.80081260  1
  O  O2905  1  0.35211220  0.21374060  0.00081260  1
  O  O2906  1  0.35211220  0.21374060  0.20081260  1
  O  O2907  1  0.35211220  0.21374060  0.40081260  1
  O  O2908  1  0.35211220  0.21374060  0.60081260  1
  O  O2909  1  0.35211220  0.21374060  0.80081260  1
  O  O2910  1  0.35211220  0.41374060  0.00081260  1
  O  O2911  1  0.35211220  0.41374060  0.20081260  1
  O  O2912  1  0.35211220  0.41374060  0.40081260  1
  O  O2913  1  0.35211220  0.41374060  0.60081260  1
  O  O2914  1  0.35211220  0.41374060  0.80081260  1
  O  O2915  1  0.35211220  0.61374060  0.00081260  1
  O  O2916  1  0.35211220  0.61374060  0.20081260  1
  O  O2917  1  0.35211220  0.61374060  0.40081260  1
  O  O2918  1  0.35211220  0.61374060  0.60081260  1
  O  O2919  1  0.35211220  0.61374060  0.80081260  1
  O  O2920  1  0.35211220  0.81374060  0.00081260  1
  O  O2921  1  0.35211220  0.81374060  0.20081260  1
  O  O2922  1  0.35211220  0.81374060  0.40081260  1
  O  O2923  1  0.35211220  0.81374060  0.60081260  1
  O  O2924  1  0.35211220  0.81374060  0.80081260  1
  O  O2925  1  0.55211220  0.01374060  0.00081260  1
  O  O2926  1  0.55211220  0.01374060  0.20081260  1
  O  O2927  1  0.55211220  0.01374060  0.40081260  1
  O  O2928  1  0.55211220  0.01374060  0.60081260  1
  O  O2929  1  0.55211220  0.01374060  0.80081260  1
  O  O2930  1  0.55211220  0.21374060  0.00081260  1
  O  O2931  1  0.55211220  0.21374060  0.20081260  1
  O  O2932  1  0.55211220  0.21374060  0.40081260  1
  O  O2933  1  0.55211220  0.21374060  0.60081260  1
  O  O2934  1  0.55211220  0.21374060  0.80081260  1
  O  O2935  1  0.55211220  0.41374060  0.00081260  1
  O  O2936  1  0.55211220  0.41374060  0.20081260  1
  O  O2937  1  0.55211220  0.41374060  0.40081260  1
  O  O2938  1  0.55211220  0.41374060  0.60081260  1
  O  O2939  1  0.55211220  0.41374060  0.80081260  1
  O  O2940  1  0.55211220  0.61374060  0.00081260  1
  O  O2941  1  0.55211220  0.61374060  0.20081260  1
  O  O2942  1  0.55211220  0.61374060  0.40081260  1
  O  O2943  1  0.55211220  0.61374060  0.60081260  1
  O  O2944  1  0.55211220  0.61374060  0.80081260  1
  O  O2945  1  0.55211220  0.81374060  0.00081260  1
  O  O2946  1  0.55211220  0.81374060  0.20081260  1
  O  O2947  1  0.55211220  0.81374060  0.40081260  1
  O  O2948  1  0.55211220  0.81374060  0.60081260  1
  O  O2949  1  0.55211220  0.81374060  0.80081260  1
  O  O2950  1  0.75211220  0.01374060  0.00081260  1
  O  O2951  1  0.75211220  0.01374060  0.20081260  1
  O  O2952  1  0.75211220  0.01374060  0.40081260  1
  O  O2953  1  0.75211220  0.01374060  0.60081260  1
  O  O2954  1  0.75211220  0.01374060  0.80081260  1
  O  O2955  1  0.75211220  0.21374060  0.00081260  1
  O  O2956  1  0.75211220  0.21374060  0.20081260  1
  O  O2957  1  0.75211220  0.21374060  0.40081260  1
  O  O2958  1  0.75211220  0.21374060  0.60081260  1
  O  O2959  1  0.75211220  0.21374060  0.80081260  1
  O  O2960  1  0.75211220  0.41374060  0.00081260  1
  O  O2961  1  0.75211220  0.41374060  0.20081260  1
  O  O2962  1  0.75211220  0.41374060  0.40081260  1
  O  O2963  1  0.75211220  0.41374060  0.60081260  1
  O  O2964  1  0.75211220  0.41374060  0.80081260  1
  O  O2965  1  0.75211220  0.61374060  0.00081260  1
  O  O2966  1  0.75211220  0.61374060  0.20081260  1
  O  O2967  1  0.75211220  0.61374060  0.40081260  1
  O  O2968  1  0.75211220  0.61374060  0.60081260  1
  O  O2969  1  0.75211220  0.61374060  0.80081260  1
  O  O2970  1  0.75211220  0.81374060  0.00081260  1
  O  O2971  1  0.75211220  0.81374060  0.20081260  1
  O  O2972  1  0.75211220  0.81374060  0.40081260  1
  O  O2973  1  0.75211220  0.81374060  0.60081260  1
  O  O2974  1  0.75211220  0.81374060  0.80081260  1
  O  O2975  1  0.95211220  0.01374060  0.00081260  1
  O  O2976  1  0.95211220  0.01374060  0.20081260  1
  O  O2977  1  0.95211220  0.01374060  0.40081260  1
  O  O2978  1  0.95211220  0.01374060  0.60081260  1
  O  O2979  1  0.95211220  0.01374060  0.80081260  1
  O  O2980  1  0.95211220  0.21374060  0.00081260  1
  O  O2981  1  0.95211220  0.21374060  0.20081260  1
  O  O2982  1  0.95211220  0.21374060  0.40081260  1
  O  O2983  1  0.95211220  0.21374060  0.60081260  1
  O  O2984  1  0.95211220  0.21374060  0.80081260  1
  O  O2985  1  0.95211220  0.41374060  0.00081260  1
  O  O2986  1  0.95211220  0.41374060  0.20081260  1
  O  O2987  1  0.95211220  0.41374060  0.40081260  1
  O  O2988  1  0.95211220  0.41374060  0.60081260  1
  O  O2989  1  0.95211220  0.41374060  0.80081260  1
  O  O2990  1  0.95211220  0.61374060  0.00081260  1
  O  O2991  1  0.95211220  0.61374060  0.20081260  1
  O  O2992  1  0.95211220  0.61374060  0.40081260  1
  O  O2993  1  0.95211220  0.61374060  0.60081260  1
  O  O2994  1  0.95211220  0.61374060  0.80081260  1
  O  O2995  1  0.95211220  0.81374060  0.00081260  1
  O  O2996  1  0.95211220  0.81374060  0.20081260  1
  O  O2997  1  0.95211220  0.81374060  0.40081260  1
  O  O2998  1  0.95211220  0.81374060  0.60081260  1
  O  O2999  1  0.95211220  0.81374060  0.80081260  1
