# generated using pymatgen
data_BaLi2SiO4
_symmetry_space_group_name_H-M   'P 1'
_cell_length_a   32.73353796
_cell_length_b   32.73353796
_cell_length_c   43.05410000
_cell_angle_alpha   90.00000000
_cell_angle_beta   90.00000000
_cell_angle_gamma   120.00000397
_symmetry_Int_Tables_number   1
_chemical_formula_structural   BaLi2SiO4
_chemical_formula_sum   'Ba384 Li768 Si384 O1536'
_cell_volume   39951.31011256
_cell_formula_units_Z   384
loop_
 _symmetry_equiv_pos_site_id
 _symmetry_equiv_pos_as_xyz
  1  'x, y, z'
loop_
 _atom_site_type_symbol
 _atom_site_label
 _atom_site_symmetry_multiplicity
 _atom_site_fract_x
 _atom_site_fract_y
 _atom_site_fract_z
 _atom_site_occupancy
  Ba  Ba0  1  0.10755800  1.00000000  0.18160600  1
  Ba  Ba1  1  0.10755800  1.00000000  0.43160600  1
  Ba  Ba2  1  0.10755800  1.00000000  0.68160600  1
  Ba  Ba3  1  0.10755800  1.00000000  0.93160600  1
  Ba  Ba4  1  0.10755800  0.25000000  0.18160600  1
  Ba  Ba5  1  0.10755800  0.25000000  0.43160600  1
  Ba  Ba6  1  0.10755800  0.25000000  0.68160600  1
  Ba  Ba7  1  0.10755800  0.25000000  0.93160600  1
  Ba  Ba8  1  0.10755800  0.50000000  0.18160600  1
  Ba  Ba9  1  0.10755800  0.50000000  0.43160600  1
  Ba  Ba10  1  0.10755800  0.50000000  0.68160600  1
  Ba  Ba11  1  0.10755800  0.50000000  0.93160600  1
  Ba  Ba12  1  0.10755800  0.75000000  0.18160600  1
  Ba  Ba13  1  0.10755800  0.75000000  0.43160600  1
  Ba  Ba14  1  0.10755800  0.75000000  0.68160600  1
  Ba  Ba15  1  0.10755800  0.75000000  0.93160600  1
  Ba  Ba16  1  0.35755800  1.00000000  0.18160600  1
  Ba  Ba17  1  0.35755800  1.00000000  0.43160600  1
  Ba  Ba18  1  0.35755800  1.00000000  0.68160600  1
  Ba  Ba19  1  0.35755800  1.00000000  0.93160600  1
  Ba  Ba20  1  0.35755800  0.25000000  0.18160600  1
  Ba  Ba21  1  0.35755800  0.25000000  0.43160600  1
  Ba  Ba22  1  0.35755800  0.25000000  0.68160600  1
  Ba  Ba23  1  0.35755800  0.25000000  0.93160600  1
  Ba  Ba24  1  0.35755800  0.50000000  0.18160600  1
  Ba  Ba25  1  0.35755800  0.50000000  0.43160600  1
  Ba  Ba26  1  0.35755800  0.50000000  0.68160600  1
  Ba  Ba27  1  0.35755800  0.50000000  0.93160600  1
  Ba  Ba28  1  0.35755800  0.75000000  0.18160600  1
  Ba  Ba29  1  0.35755800  0.75000000  0.43160600  1
  Ba  Ba30  1  0.35755800  0.75000000  0.68160600  1
  Ba  Ba31  1  0.35755800  0.75000000  0.93160600  1
  Ba  Ba32  1  0.60755800  1.00000000  0.18160600  1
  Ba  Ba33  1  0.60755800  1.00000000  0.43160600  1
  Ba  Ba34  1  0.60755800  1.00000000  0.68160600  1
  Ba  Ba35  1  0.60755800  1.00000000  0.93160600  1
  Ba  Ba36  1  0.60755800  0.25000000  0.18160600  1
  Ba  Ba37  1  0.60755800  0.25000000  0.43160600  1
  Ba  Ba38  1  0.60755800  0.25000000  0.68160600  1
  Ba  Ba39  1  0.60755800  0.25000000  0.93160600  1
  Ba  Ba40  1  0.60755800  0.50000000  0.18160600  1
  Ba  Ba41  1  0.60755800  0.50000000  0.43160600  1
  Ba  Ba42  1  0.60755800  0.50000000  0.68160600  1
  Ba  Ba43  1  0.60755800  0.50000000  0.93160600  1
  Ba  Ba44  1  0.60755800  0.75000000  0.18160600  1
  Ba  Ba45  1  0.60755800  0.75000000  0.43160600  1
  Ba  Ba46  1  0.60755800  0.75000000  0.68160600  1
  Ba  Ba47  1  0.60755800  0.75000000  0.93160600  1
  Ba  Ba48  1  0.85755800  1.00000000  0.18160600  1
  Ba  Ba49  1  0.85755800  1.00000000  0.43160600  1
  Ba  Ba50  1  0.85755800  1.00000000  0.68160600  1
  Ba  Ba51  1  0.85755800  1.00000000  0.93160600  1
  Ba  Ba52  1  0.85755800  0.25000000  0.18160600  1
  Ba  Ba53  1  0.85755800  0.25000000  0.43160600  1
  Ba  Ba54  1  0.85755800  0.25000000  0.68160600  1
  Ba  Ba55  1  0.85755800  0.25000000  0.93160600  1
  Ba  Ba56  1  0.85755800  0.50000000  0.18160600  1
  Ba  Ba57  1  0.85755800  0.50000000  0.43160600  1
  Ba  Ba58  1  0.85755800  0.50000000  0.68160600  1
  Ba  Ba59  1  0.85755800  0.50000000  0.93160600  1
  Ba  Ba60  1  0.85755800  0.75000000  0.18160600  1
  Ba  Ba61  1  0.85755800  0.75000000  0.43160600  1
  Ba  Ba62  1  0.85755800  0.75000000  0.68160600  1
  Ba  Ba63  1  0.85755800  0.75000000  0.93160600  1
  Ba  Ba64  1  0.14244200  1.00000000  0.05660600  1
  Ba  Ba65  1  0.14244200  1.00000000  0.30660600  1
  Ba  Ba66  1  0.14244200  1.00000000  0.55660600  1
  Ba  Ba67  1  0.14244200  1.00000000  0.80660600  1
  Ba  Ba68  1  0.14244200  0.25000000  0.05660600  1
  Ba  Ba69  1  0.14244200  0.25000000  0.30660600  1
  Ba  Ba70  1  0.14244200  0.25000000  0.55660600  1
  Ba  Ba71  1  0.14244200  0.25000000  0.80660600  1
  Ba  Ba72  1  0.14244200  0.50000000  0.05660600  1
  Ba  Ba73  1  0.14244200  0.50000000  0.30660600  1
  Ba  Ba74  1  0.14244200  0.50000000  0.55660600  1
  Ba  Ba75  1  0.14244200  0.50000000  0.80660600  1
  Ba  Ba76  1  0.14244200  0.75000000  0.05660600  1
  Ba  Ba77  1  0.14244200  0.75000000  0.30660600  1
  Ba  Ba78  1  0.14244200  0.75000000  0.55660600  1
  Ba  Ba79  1  0.14244200  0.75000000  0.80660600  1
  Ba  Ba80  1  0.39244200  1.00000000  0.05660600  1
  Ba  Ba81  1  0.39244200  1.00000000  0.30660600  1
  Ba  Ba82  1  0.39244200  1.00000000  0.55660600  1
  Ba  Ba83  1  0.39244200  1.00000000  0.80660600  1
  Ba  Ba84  1  0.39244200  0.25000000  0.05660600  1
  Ba  Ba85  1  0.39244200  0.25000000  0.30660600  1
  Ba  Ba86  1  0.39244200  0.25000000  0.55660600  1
  Ba  Ba87  1  0.39244200  0.25000000  0.80660600  1
  Ba  Ba88  1  0.39244200  0.50000000  0.05660600  1
  Ba  Ba89  1  0.39244200  0.50000000  0.30660600  1
  Ba  Ba90  1  0.39244200  0.50000000  0.55660600  1
  Ba  Ba91  1  0.39244200  0.50000000  0.80660600  1
  Ba  Ba92  1  0.39244200  0.75000000  0.05660600  1
  Ba  Ba93  1  0.39244200  0.75000000  0.30660600  1
  Ba  Ba94  1  0.39244200  0.75000000  0.55660600  1
  Ba  Ba95  1  0.39244200  0.75000000  0.80660600  1
  Ba  Ba96  1  0.64244200  1.00000000  0.05660600  1
  Ba  Ba97  1  0.64244200  1.00000000  0.30660600  1
  Ba  Ba98  1  0.64244200  1.00000000  0.55660600  1
  Ba  Ba99  1  0.64244200  1.00000000  0.80660600  1
  Ba  Ba100  1  0.64244200  0.25000000  0.05660600  1
  Ba  Ba101  1  0.64244200  0.25000000  0.30660600  1
  Ba  Ba102  1  0.64244200  0.25000000  0.55660600  1
  Ba  Ba103  1  0.64244200  0.25000000  0.80660600  1
  Ba  Ba104  1  0.64244200  0.50000000  0.05660600  1
  Ba  Ba105  1  0.64244200  0.50000000  0.30660600  1
  Ba  Ba106  1  0.64244200  0.50000000  0.55660600  1
  Ba  Ba107  1  0.64244200  0.50000000  0.80660600  1
  Ba  Ba108  1  0.64244200  0.75000000  0.05660600  1
  Ba  Ba109  1  0.64244200  0.75000000  0.30660600  1
  Ba  Ba110  1  0.64244200  0.75000000  0.55660600  1
  Ba  Ba111  1  0.64244200  0.75000000  0.80660600  1
  Ba  Ba112  1  0.89244200  1.00000000  0.05660600  1
  Ba  Ba113  1  0.89244200  1.00000000  0.30660600  1
  Ba  Ba114  1  0.89244200  1.00000000  0.55660600  1
  Ba  Ba115  1  0.89244200  1.00000000  0.80660600  1
  Ba  Ba116  1  0.89244200  0.25000000  0.05660600  1
  Ba  Ba117  1  0.89244200  0.25000000  0.30660600  1
  Ba  Ba118  1  0.89244200  0.25000000  0.55660600  1
  Ba  Ba119  1  0.89244200  0.25000000  0.80660600  1
  Ba  Ba120  1  0.89244200  0.50000000  0.05660600  1
  Ba  Ba121  1  0.89244200  0.50000000  0.30660600  1
  Ba  Ba122  1  0.89244200  0.50000000  0.55660600  1
  Ba  Ba123  1  0.89244200  0.50000000  0.80660600  1
  Ba  Ba124  1  0.89244200  0.75000000  0.05660600  1
  Ba  Ba125  1  0.89244200  0.75000000  0.30660600  1
  Ba  Ba126  1  0.89244200  0.75000000  0.55660600  1
  Ba  Ba127  1  0.89244200  0.75000000  0.80660600  1
  Ba  Ba128  1  0.10755800  0.10755800  0.05660600  1
  Ba  Ba129  1  0.10755800  0.10755800  0.30660600  1
  Ba  Ba130  1  0.10755800  0.10755800  0.55660600  1
  Ba  Ba131  1  0.10755800  0.10755800  0.80660600  1
  Ba  Ba132  1  0.10755800  0.35755800  0.05660600  1
  Ba  Ba133  1  0.10755800  0.35755800  0.30660600  1
  Ba  Ba134  1  0.10755800  0.35755800  0.55660600  1
  Ba  Ba135  1  0.10755800  0.35755800  0.80660600  1
  Ba  Ba136  1  0.10755800  0.60755800  0.05660600  1
  Ba  Ba137  1  0.10755800  0.60755800  0.30660600  1
  Ba  Ba138  1  0.10755800  0.60755800  0.55660600  1
  Ba  Ba139  1  0.10755800  0.60755800  0.80660600  1
  Ba  Ba140  1  0.10755800  0.85755800  0.05660600  1
  Ba  Ba141  1  0.10755800  0.85755800  0.30660600  1
  Ba  Ba142  1  0.10755800  0.85755800  0.55660600  1
  Ba  Ba143  1  0.10755800  0.85755800  0.80660600  1
  Ba  Ba144  1  0.35755800  0.10755800  0.05660600  1
  Ba  Ba145  1  0.35755800  0.10755800  0.30660600  1
  Ba  Ba146  1  0.35755800  0.10755800  0.55660600  1
  Ba  Ba147  1  0.35755800  0.10755800  0.80660600  1
  Ba  Ba148  1  0.35755800  0.35755800  0.05660600  1
  Ba  Ba149  1  0.35755800  0.35755800  0.30660600  1
  Ba  Ba150  1  0.35755800  0.35755800  0.55660600  1
  Ba  Ba151  1  0.35755800  0.35755800  0.80660600  1
  Ba  Ba152  1  0.35755800  0.60755800  0.05660600  1
  Ba  Ba153  1  0.35755800  0.60755800  0.30660600  1
  Ba  Ba154  1  0.35755800  0.60755800  0.55660600  1
  Ba  Ba155  1  0.35755800  0.60755800  0.80660600  1
  Ba  Ba156  1  0.35755800  0.85755800  0.05660600  1
  Ba  Ba157  1  0.35755800  0.85755800  0.30660600  1
  Ba  Ba158  1  0.35755800  0.85755800  0.55660600  1
  Ba  Ba159  1  0.35755800  0.85755800  0.80660600  1
  Ba  Ba160  1  0.60755800  0.10755800  0.05660600  1
  Ba  Ba161  1  0.60755800  0.10755800  0.30660600  1
  Ba  Ba162  1  0.60755800  0.10755800  0.55660600  1
  Ba  Ba163  1  0.60755800  0.10755800  0.80660600  1
  Ba  Ba164  1  0.60755800  0.35755800  0.05660600  1
  Ba  Ba165  1  0.60755800  0.35755800  0.30660600  1
  Ba  Ba166  1  0.60755800  0.35755800  0.55660600  1
  Ba  Ba167  1  0.60755800  0.35755800  0.80660600  1
  Ba  Ba168  1  0.60755800  0.60755800  0.05660600  1
  Ba  Ba169  1  0.60755800  0.60755800  0.30660600  1
  Ba  Ba170  1  0.60755800  0.60755800  0.55660600  1
  Ba  Ba171  1  0.60755800  0.60755800  0.80660600  1
  Ba  Ba172  1  0.60755800  0.85755800  0.05660600  1
  Ba  Ba173  1  0.60755800  0.85755800  0.30660600  1
  Ba  Ba174  1  0.60755800  0.85755800  0.55660600  1
  Ba  Ba175  1  0.60755800  0.85755800  0.80660600  1
  Ba  Ba176  1  0.85755800  0.10755800  0.05660600  1
  Ba  Ba177  1  0.85755800  0.10755800  0.30660600  1
  Ba  Ba178  1  0.85755800  0.10755800  0.55660600  1
  Ba  Ba179  1  0.85755800  0.10755800  0.80660600  1
  Ba  Ba180  1  0.85755800  0.35755800  0.05660600  1
  Ba  Ba181  1  0.85755800  0.35755800  0.30660600  1
  Ba  Ba182  1  0.85755800  0.35755800  0.55660600  1
  Ba  Ba183  1  0.85755800  0.35755800  0.80660600  1
  Ba  Ba184  1  0.85755800  0.60755800  0.05660600  1
  Ba  Ba185  1  0.85755800  0.60755800  0.30660600  1
  Ba  Ba186  1  0.85755800  0.60755800  0.55660600  1
  Ba  Ba187  1  0.85755800  0.60755800  0.80660600  1
  Ba  Ba188  1  0.85755800  0.85755800  0.05660600  1
  Ba  Ba189  1  0.85755800  0.85755800  0.30660600  1
  Ba  Ba190  1  0.85755800  0.85755800  0.55660600  1
  Ba  Ba191  1  0.85755800  0.85755800  0.80660600  1
  Ba  Ba192  1  1.00000000  0.14244200  0.05660600  1
  Ba  Ba193  1  1.00000000  0.14244200  0.30660600  1
  Ba  Ba194  1  1.00000000  0.14244200  0.55660600  1
  Ba  Ba195  1  1.00000000  0.14244200  0.80660600  1
  Ba  Ba196  1  1.00000000  0.39244200  0.05660600  1
  Ba  Ba197  1  1.00000000  0.39244200  0.30660600  1
  Ba  Ba198  1  1.00000000  0.39244200  0.55660600  1
  Ba  Ba199  1  1.00000000  0.39244200  0.80660600  1
  Ba  Ba200  1  1.00000000  0.64244200  0.05660600  1
  Ba  Ba201  1  1.00000000  0.64244200  0.30660600  1
  Ba  Ba202  1  1.00000000  0.64244200  0.55660600  1
  Ba  Ba203  1  1.00000000  0.64244200  0.80660600  1
  Ba  Ba204  1  1.00000000  0.89244200  0.05660600  1
  Ba  Ba205  1  1.00000000  0.89244200  0.30660600  1
  Ba  Ba206  1  1.00000000  0.89244200  0.55660600  1
  Ba  Ba207  1  1.00000000  0.89244200  0.80660600  1
  Ba  Ba208  1  0.25000000  0.14244200  0.05660600  1
  Ba  Ba209  1  0.25000000  0.14244200  0.30660600  1
  Ba  Ba210  1  0.25000000  0.14244200  0.55660600  1
  Ba  Ba211  1  0.25000000  0.14244200  0.80660600  1
  Ba  Ba212  1  0.25000000  0.39244200  0.05660600  1
  Ba  Ba213  1  0.25000000  0.39244200  0.30660600  1
  Ba  Ba214  1  0.25000000  0.39244200  0.55660600  1
  Ba  Ba215  1  0.25000000  0.39244200  0.80660600  1
  Ba  Ba216  1  0.25000000  0.64244200  0.05660600  1
  Ba  Ba217  1  0.25000000  0.64244200  0.30660600  1
  Ba  Ba218  1  0.25000000  0.64244200  0.55660600  1
  Ba  Ba219  1  0.25000000  0.64244200  0.80660600  1
  Ba  Ba220  1  0.25000000  0.89244200  0.05660600  1
  Ba  Ba221  1  0.25000000  0.89244200  0.30660600  1
  Ba  Ba222  1  0.25000000  0.89244200  0.55660600  1
  Ba  Ba223  1  0.25000000  0.89244200  0.80660600  1
  Ba  Ba224  1  0.50000000  0.14244200  0.05660600  1
  Ba  Ba225  1  0.50000000  0.14244200  0.30660600  1
  Ba  Ba226  1  0.50000000  0.14244200  0.55660600  1
  Ba  Ba227  1  0.50000000  0.14244200  0.80660600  1
  Ba  Ba228  1  0.50000000  0.39244200  0.05660600  1
  Ba  Ba229  1  0.50000000  0.39244200  0.30660600  1
  Ba  Ba230  1  0.50000000  0.39244200  0.55660600  1
  Ba  Ba231  1  0.50000000  0.39244200  0.80660600  1
  Ba  Ba232  1  0.50000000  0.64244200  0.05660600  1
  Ba  Ba233  1  0.50000000  0.64244200  0.30660600  1
  Ba  Ba234  1  0.50000000  0.64244200  0.55660600  1
  Ba  Ba235  1  0.50000000  0.64244200  0.80660600  1
  Ba  Ba236  1  0.50000000  0.89244200  0.05660600  1
  Ba  Ba237  1  0.50000000  0.89244200  0.30660600  1
  Ba  Ba238  1  0.50000000  0.89244200  0.55660600  1
  Ba  Ba239  1  0.50000000  0.89244200  0.80660600  1
  Ba  Ba240  1  0.75000000  0.14244200  0.05660600  1
  Ba  Ba241  1  0.75000000  0.14244200  0.30660600  1
  Ba  Ba242  1  0.75000000  0.14244200  0.55660600  1
  Ba  Ba243  1  0.75000000  0.14244200  0.80660600  1
  Ba  Ba244  1  0.75000000  0.39244200  0.05660600  1
  Ba  Ba245  1  0.75000000  0.39244200  0.30660600  1
  Ba  Ba246  1  0.75000000  0.39244200  0.55660600  1
  Ba  Ba247  1  0.75000000  0.39244200  0.80660600  1
  Ba  Ba248  1  0.75000000  0.64244200  0.05660600  1
  Ba  Ba249  1  0.75000000  0.64244200  0.30660600  1
  Ba  Ba250  1  0.75000000  0.64244200  0.55660600  1
  Ba  Ba251  1  0.75000000  0.64244200  0.80660600  1
  Ba  Ba252  1  0.75000000  0.89244200  0.05660600  1
  Ba  Ba253  1  0.75000000  0.89244200  0.30660600  1
  Ba  Ba254  1  0.75000000  0.89244200  0.55660600  1
  Ba  Ba255  1  0.75000000  0.89244200  0.80660600  1
  Ba  Ba256  1  1.00000000  0.10755800  0.18160600  1
  Ba  Ba257  1  1.00000000  0.10755800  0.43160600  1
  Ba  Ba258  1  1.00000000  0.10755800  0.68160600  1
  Ba  Ba259  1  1.00000000  0.10755800  0.93160600  1
  Ba  Ba260  1  1.00000000  0.35755800  0.18160600  1
  Ba  Ba261  1  1.00000000  0.35755800  0.43160600  1
  Ba  Ba262  1  1.00000000  0.35755800  0.68160600  1
  Ba  Ba263  1  1.00000000  0.35755800  0.93160600  1
  Ba  Ba264  1  1.00000000  0.60755800  0.18160600  1
  Ba  Ba265  1  1.00000000  0.60755800  0.43160600  1
  Ba  Ba266  1  1.00000000  0.60755800  0.68160600  1
  Ba  Ba267  1  1.00000000  0.60755800  0.93160600  1
  Ba  Ba268  1  1.00000000  0.85755800  0.18160600  1
  Ba  Ba269  1  1.00000000  0.85755800  0.43160600  1
  Ba  Ba270  1  1.00000000  0.85755800  0.68160600  1
  Ba  Ba271  1  1.00000000  0.85755800  0.93160600  1
  Ba  Ba272  1  0.25000000  0.10755800  0.18160600  1
  Ba  Ba273  1  0.25000000  0.10755800  0.43160600  1
  Ba  Ba274  1  0.25000000  0.10755800  0.68160600  1
  Ba  Ba275  1  0.25000000  0.10755800  0.93160600  1
  Ba  Ba276  1  0.25000000  0.35755800  0.18160600  1
  Ba  Ba277  1  0.25000000  0.35755800  0.43160600  1
  Ba  Ba278  1  0.25000000  0.35755800  0.68160600  1
  Ba  Ba279  1  0.25000000  0.35755800  0.93160600  1
  Ba  Ba280  1  0.25000000  0.60755800  0.18160600  1
  Ba  Ba281  1  0.25000000  0.60755800  0.43160600  1
  Ba  Ba282  1  0.25000000  0.60755800  0.68160600  1
  Ba  Ba283  1  0.25000000  0.60755800  0.93160600  1
  Ba  Ba284  1  0.25000000  0.85755800  0.18160600  1
  Ba  Ba285  1  0.25000000  0.85755800  0.43160600  1
  Ba  Ba286  1  0.25000000  0.85755800  0.68160600  1
  Ba  Ba287  1  0.25000000  0.85755800  0.93160600  1
  Ba  Ba288  1  0.50000000  0.10755800  0.18160600  1
  Ba  Ba289  1  0.50000000  0.10755800  0.43160600  1
  Ba  Ba290  1  0.50000000  0.10755800  0.68160600  1
  Ba  Ba291  1  0.50000000  0.10755800  0.93160600  1
  Ba  Ba292  1  0.50000000  0.35755800  0.18160600  1
  Ba  Ba293  1  0.50000000  0.35755800  0.43160600  1
  Ba  Ba294  1  0.50000000  0.35755800  0.68160600  1
  Ba  Ba295  1  0.50000000  0.35755800  0.93160600  1
  Ba  Ba296  1  0.50000000  0.60755800  0.18160600  1
  Ba  Ba297  1  0.50000000  0.60755800  0.43160600  1
  Ba  Ba298  1  0.50000000  0.60755800  0.68160600  1
  Ba  Ba299  1  0.50000000  0.60755800  0.93160600  1
  Ba  Ba300  1  0.50000000  0.85755800  0.18160600  1
  Ba  Ba301  1  0.50000000  0.85755800  0.43160600  1
  Ba  Ba302  1  0.50000000  0.85755800  0.68160600  1
  Ba  Ba303  1  0.50000000  0.85755800  0.93160600  1
  Ba  Ba304  1  0.75000000  0.10755800  0.18160600  1
  Ba  Ba305  1  0.75000000  0.10755800  0.43160600  1
  Ba  Ba306  1  0.75000000  0.10755800  0.68160600  1
  Ba  Ba307  1  0.75000000  0.10755800  0.93160600  1
  Ba  Ba308  1  0.75000000  0.35755800  0.18160600  1
  Ba  Ba309  1  0.75000000  0.35755800  0.43160600  1
  Ba  Ba310  1  0.75000000  0.35755800  0.68160600  1
  Ba  Ba311  1  0.75000000  0.35755800  0.93160600  1
  Ba  Ba312  1  0.75000000  0.60755800  0.18160600  1
  Ba  Ba313  1  0.75000000  0.60755800  0.43160600  1
  Ba  Ba314  1  0.75000000  0.60755800  0.68160600  1
  Ba  Ba315  1  0.75000000  0.60755800  0.93160600  1
  Ba  Ba316  1  0.75000000  0.85755800  0.18160600  1
  Ba  Ba317  1  0.75000000  0.85755800  0.43160600  1
  Ba  Ba318  1  0.75000000  0.85755800  0.68160600  1
  Ba  Ba319  1  0.75000000  0.85755800  0.93160600  1
  Ba  Ba320  1  0.14244200  0.14244200  0.18160600  1
  Ba  Ba321  1  0.14244200  0.14244200  0.43160600  1
  Ba  Ba322  1  0.14244200  0.14244200  0.68160600  1
  Ba  Ba323  1  0.14244200  0.14244200  0.93160600  1
  Ba  Ba324  1  0.14244200  0.39244200  0.18160600  1
  Ba  Ba325  1  0.14244200  0.39244200  0.43160600  1
  Ba  Ba326  1  0.14244200  0.39244200  0.68160600  1
  Ba  Ba327  1  0.14244200  0.39244200  0.93160600  1
  Ba  Ba328  1  0.14244200  0.64244200  0.18160600  1
  Ba  Ba329  1  0.14244200  0.64244200  0.43160600  1
  Ba  Ba330  1  0.14244200  0.64244200  0.68160600  1
  Ba  Ba331  1  0.14244200  0.64244200  0.93160600  1
  Ba  Ba332  1  0.14244200  0.89244200  0.18160600  1
  Ba  Ba333  1  0.14244200  0.89244200  0.43160600  1
  Ba  Ba334  1  0.14244200  0.89244200  0.68160600  1
  Ba  Ba335  1  0.14244200  0.89244200  0.93160600  1
  Ba  Ba336  1  0.39244200  0.14244200  0.18160600  1
  Ba  Ba337  1  0.39244200  0.14244200  0.43160600  1
  Ba  Ba338  1  0.39244200  0.14244200  0.68160600  1
  Ba  Ba339  1  0.39244200  0.14244200  0.93160600  1
  Ba  Ba340  1  0.39244200  0.39244200  0.18160600  1
  Ba  Ba341  1  0.39244200  0.39244200  0.43160600  1
  Ba  Ba342  1  0.39244200  0.39244200  0.68160600  1
  Ba  Ba343  1  0.39244200  0.39244200  0.93160600  1
  Ba  Ba344  1  0.39244200  0.64244200  0.18160600  1
  Ba  Ba345  1  0.39244200  0.64244200  0.43160600  1
  Ba  Ba346  1  0.39244200  0.64244200  0.68160600  1
  Ba  Ba347  1  0.39244200  0.64244200  0.93160600  1
  Ba  Ba348  1  0.39244200  0.89244200  0.18160600  1
  Ba  Ba349  1  0.39244200  0.89244200  0.43160600  1
  Ba  Ba350  1  0.39244200  0.89244200  0.68160600  1
  Ba  Ba351  1  0.39244200  0.89244200  0.93160600  1
  Ba  Ba352  1  0.64244200  0.14244200  0.18160600  1
  Ba  Ba353  1  0.64244200  0.14244200  0.43160600  1
  Ba  Ba354  1  0.64244200  0.14244200  0.68160600  1
  Ba  Ba355  1  0.64244200  0.14244200  0.93160600  1
  Ba  Ba356  1  0.64244200  0.39244200  0.18160600  1
  Ba  Ba357  1  0.64244200  0.39244200  0.43160600  1
  Ba  Ba358  1  0.64244200  0.39244200  0.68160600  1
  Ba  Ba359  1  0.64244200  0.39244200  0.93160600  1
  Ba  Ba360  1  0.64244200  0.64244200  0.18160600  1
  Ba  Ba361  1  0.64244200  0.64244200  0.43160600  1
  Ba  Ba362  1  0.64244200  0.64244200  0.68160600  1
  Ba  Ba363  1  0.64244200  0.64244200  0.93160600  1
  Ba  Ba364  1  0.64244200  0.89244200  0.18160600  1
  Ba  Ba365  1  0.64244200  0.89244200  0.43160600  1
  Ba  Ba366  1  0.64244200  0.89244200  0.68160600  1
  Ba  Ba367  1  0.64244200  0.89244200  0.93160600  1
  Ba  Ba368  1  0.89244200  0.14244200  0.18160600  1
  Ba  Ba369  1  0.89244200  0.14244200  0.43160600  1
  Ba  Ba370  1  0.89244200  0.14244200  0.68160600  1
  Ba  Ba371  1  0.89244200  0.14244200  0.93160600  1
  Ba  Ba372  1  0.89244200  0.39244200  0.18160600  1
  Ba  Ba373  1  0.89244200  0.39244200  0.43160600  1
  Ba  Ba374  1  0.89244200  0.39244200  0.68160600  1
  Ba  Ba375  1  0.89244200  0.39244200  0.93160600  1
  Ba  Ba376  1  0.89244200  0.64244200  0.18160600  1
  Ba  Ba377  1  0.89244200  0.64244200  0.43160600  1
  Ba  Ba378  1  0.89244200  0.64244200  0.68160600  1
  Ba  Ba379  1  0.89244200  0.64244200  0.93160600  1
  Ba  Ba380  1  0.89244200  0.89244200  0.18160600  1
  Ba  Ba381  1  0.89244200  0.89244200  0.43160600  1
  Ba  Ba382  1  0.89244200  0.89244200  0.68160600  1
  Ba  Ba383  1  0.89244200  0.89244200  0.93160600  1
  Li  Li384  1  0.05632350  1.00000000  0.01982600  1
  Li  Li385  1  0.05632350  1.00000000  0.26982600  1
  Li  Li386  1  0.05632350  1.00000000  0.51982600  1
  Li  Li387  1  0.05632350  1.00000000  0.76982600  1
  Li  Li388  1  0.05632350  0.25000000  0.01982600  1
  Li  Li389  1  0.05632350  0.25000000  0.26982600  1
  Li  Li390  1  0.05632350  0.25000000  0.51982600  1
  Li  Li391  1  0.05632350  0.25000000  0.76982600  1
  Li  Li392  1  0.05632350  0.50000000  0.01982600  1
  Li  Li393  1  0.05632350  0.50000000  0.26982600  1
  Li  Li394  1  0.05632350  0.50000000  0.51982600  1
  Li  Li395  1  0.05632350  0.50000000  0.76982600  1
  Li  Li396  1  0.05632350  0.75000000  0.01982600  1
  Li  Li397  1  0.05632350  0.75000000  0.26982600  1
  Li  Li398  1  0.05632350  0.75000000  0.51982600  1
  Li  Li399  1  0.05632350  0.75000000  0.76982600  1
  Li  Li400  1  0.30632350  0.00000000  0.01982600  1
  Li  Li401  1  0.30632350  0.00000000  0.26982600  1
  Li  Li402  1  0.30632350  0.00000000  0.51982600  1
  Li  Li403  1  0.30632350  0.00000000  0.76982600  1
  Li  Li404  1  0.30632350  0.25000000  0.01982600  1
  Li  Li405  1  0.30632350  0.25000000  0.26982600  1
  Li  Li406  1  0.30632350  0.25000000  0.51982600  1
  Li  Li407  1  0.30632350  0.25000000  0.76982600  1
  Li  Li408  1  0.30632350  0.50000000  0.01982600  1
  Li  Li409  1  0.30632350  0.50000000  0.26982600  1
  Li  Li410  1  0.30632350  0.50000000  0.51982600  1
  Li  Li411  1  0.30632350  0.50000000  0.76982600  1
  Li  Li412  1  0.30632350  0.75000000  0.01982600  1
  Li  Li413  1  0.30632350  0.75000000  0.26982600  1
  Li  Li414  1  0.30632350  0.75000000  0.51982600  1
  Li  Li415  1  0.30632350  0.75000000  0.76982600  1
  Li  Li416  1  0.55632350  1.00000000  0.01982600  1
  Li  Li417  1  0.55632350  1.00000000  0.26982600  1
  Li  Li418  1  0.55632350  1.00000000  0.51982600  1
  Li  Li419  1  0.55632350  1.00000000  0.76982600  1
  Li  Li420  1  0.55632350  0.25000000  0.01982600  1
  Li  Li421  1  0.55632350  0.25000000  0.26982600  1
  Li  Li422  1  0.55632350  0.25000000  0.51982600  1
  Li  Li423  1  0.55632350  0.25000000  0.76982600  1
  Li  Li424  1  0.55632350  0.50000000  0.01982600  1
  Li  Li425  1  0.55632350  0.50000000  0.26982600  1
  Li  Li426  1  0.55632350  0.50000000  0.51982600  1
  Li  Li427  1  0.55632350  0.50000000  0.76982600  1
  Li  Li428  1  0.55632350  0.75000000  0.01982600  1
  Li  Li429  1  0.55632350  0.75000000  0.26982600  1
  Li  Li430  1  0.55632350  0.75000000  0.51982600  1
  Li  Li431  1  0.55632350  0.75000000  0.76982600  1
  Li  Li432  1  0.80632350  1.00000000  0.01982600  1
  Li  Li433  1  0.80632350  1.00000000  0.26982600  1
  Li  Li434  1  0.80632350  1.00000000  0.51982600  1
  Li  Li435  1  0.80632350  1.00000000  0.76982600  1
  Li  Li436  1  0.80632350  0.25000000  0.01982600  1
  Li  Li437  1  0.80632350  0.25000000  0.26982600  1
  Li  Li438  1  0.80632350  0.25000000  0.51982600  1
  Li  Li439  1  0.80632350  0.25000000  0.76982600  1
  Li  Li440  1  0.80632350  0.50000000  0.01982600  1
  Li  Li441  1  0.80632350  0.50000000  0.26982600  1
  Li  Li442  1  0.80632350  0.50000000  0.51982600  1
  Li  Li443  1  0.80632350  0.50000000  0.76982600  1
  Li  Li444  1  0.80632350  0.75000000  0.01982600  1
  Li  Li445  1  0.80632350  0.75000000  0.26982600  1
  Li  Li446  1  0.80632350  0.75000000  0.51982600  1
  Li  Li447  1  0.80632350  0.75000000  0.76982600  1
  Li  Li448  1  0.18320275  0.00000000  0.23519725  1
  Li  Li449  1  0.18320275  0.00000000  0.48519725  1
  Li  Li450  1  0.18320275  0.00000000  0.73519725  1
  Li  Li451  1  0.18320275  0.00000000  0.98519725  1
  Li  Li452  1  0.18320275  0.25000000  0.23519725  1
  Li  Li453  1  0.18320275  0.25000000  0.48519725  1
  Li  Li454  1  0.18320275  0.25000000  0.73519725  1
  Li  Li455  1  0.18320275  0.25000000  0.98519725  1
  Li  Li456  1  0.18320275  0.50000000  0.23519725  1
  Li  Li457  1  0.18320275  0.50000000  0.48519725  1
  Li  Li458  1  0.18320275  0.50000000  0.73519725  1
  Li  Li459  1  0.18320275  0.50000000  0.98519725  1
  Li  Li460  1  0.18320275  0.75000000  0.23519725  1
  Li  Li461  1  0.18320275  0.75000000  0.48519725  1
  Li  Li462  1  0.18320275  0.75000000  0.73519725  1
  Li  Li463  1  0.18320275  0.75000000  0.98519725  1
  Li  Li464  1  0.43320275  1.00000000  0.23519725  1
  Li  Li465  1  0.43320275  1.00000000  0.48519725  1
  Li  Li466  1  0.43320275  1.00000000  0.73519725  1
  Li  Li467  1  0.43320275  1.00000000  0.98519725  1
  Li  Li468  1  0.43320275  0.25000000  0.23519725  1
  Li  Li469  1  0.43320275  0.25000000  0.48519725  1
  Li  Li470  1  0.43320275  0.25000000  0.73519725  1
  Li  Li471  1  0.43320275  0.25000000  0.98519725  1
  Li  Li472  1  0.43320275  0.50000000  0.23519725  1
  Li  Li473  1  0.43320275  0.50000000  0.48519725  1
  Li  Li474  1  0.43320275  0.50000000  0.73519725  1
  Li  Li475  1  0.43320275  0.50000000  0.98519725  1
  Li  Li476  1  0.43320275  0.75000000  0.23519725  1
  Li  Li477  1  0.43320275  0.75000000  0.48519725  1
  Li  Li478  1  0.43320275  0.75000000  0.73519725  1
  Li  Li479  1  0.43320275  0.75000000  0.98519725  1
  Li  Li480  1  0.68320275  1.00000000  0.23519725  1
  Li  Li481  1  0.68320275  1.00000000  0.48519725  1
  Li  Li482  1  0.68320275  1.00000000  0.73519725  1
  Li  Li483  1  0.68320275  1.00000000  0.98519725  1
  Li  Li484  1  0.68320275  0.25000000  0.23519725  1
  Li  Li485  1  0.68320275  0.25000000  0.48519725  1
  Li  Li486  1  0.68320275  0.25000000  0.73519725  1
  Li  Li487  1  0.68320275  0.25000000  0.98519725  1
  Li  Li488  1  0.68320275  0.50000000  0.23519725  1
  Li  Li489  1  0.68320275  0.50000000  0.48519725  1
  Li  Li490  1  0.68320275  0.50000000  0.73519725  1
  Li  Li491  1  0.68320275  0.50000000  0.98519725  1
  Li  Li492  1  0.68320275  0.75000000  0.23519725  1
  Li  Li493  1  0.68320275  0.75000000  0.48519725  1
  Li  Li494  1  0.68320275  0.75000000  0.73519725  1
  Li  Li495  1  0.68320275  0.75000000  0.98519725  1
  Li  Li496  1  0.93320275  1.00000000  0.23519725  1
  Li  Li497  1  0.93320275  1.00000000  0.48519725  1
  Li  Li498  1  0.93320275  1.00000000  0.73519725  1
  Li  Li499  1  0.93320275  1.00000000  0.98519725  1
  Li  Li500  1  0.93320275  0.25000000  0.23519725  1
  Li  Li501  1  0.93320275  0.25000000  0.48519725  1
  Li  Li502  1  0.93320275  0.25000000  0.73519725  1
  Li  Li503  1  0.93320275  0.25000000  0.98519725  1
  Li  Li504  1  0.93320275  0.50000000  0.23519725  1
  Li  Li505  1  0.93320275  0.50000000  0.48519725  1
  Li  Li506  1  0.93320275  0.50000000  0.73519725  1
  Li  Li507  1  0.93320275  0.50000000  0.98519725  1
  Li  Li508  1  0.93320275  0.75000000  0.23519725  1
  Li  Li509  1  0.93320275  0.75000000  0.48519725  1
  Li  Li510  1  0.93320275  0.75000000  0.73519725  1
  Li  Li511  1  0.93320275  0.75000000  0.98519725  1
  Li  Li512  1  1.00000000  0.05632350  0.01982600  1
  Li  Li513  1  1.00000000  0.05632350  0.26982600  1
  Li  Li514  1  1.00000000  0.05632350  0.51982600  1
  Li  Li515  1  1.00000000  0.05632350  0.76982600  1
  Li  Li516  1  1.00000000  0.30632350  0.01982600  1
  Li  Li517  1  1.00000000  0.30632350  0.26982600  1
  Li  Li518  1  1.00000000  0.30632350  0.51982600  1
  Li  Li519  1  1.00000000  0.30632350  0.76982600  1
  Li  Li520  1  1.00000000  0.55632350  0.01982600  1
  Li  Li521  1  1.00000000  0.55632350  0.26982600  1
  Li  Li522  1  1.00000000  0.55632350  0.51982600  1
  Li  Li523  1  1.00000000  0.55632350  0.76982600  1
  Li  Li524  1  1.00000000  0.80632350  0.01982600  1
  Li  Li525  1  1.00000000  0.80632350  0.26982600  1
  Li  Li526  1  1.00000000  0.80632350  0.51982600  1
  Li  Li527  1  1.00000000  0.80632350  0.76982600  1
  Li  Li528  1  0.25000000  0.05632350  0.01982600  1
  Li  Li529  1  0.25000000  0.05632350  0.26982600  1
  Li  Li530  1  0.25000000  0.05632350  0.51982600  1
  Li  Li531  1  0.25000000  0.05632350  0.76982600  1
  Li  Li532  1  0.25000000  0.30632350  0.01982600  1
  Li  Li533  1  0.25000000  0.30632350  0.26982600  1
  Li  Li534  1  0.25000000  0.30632350  0.51982600  1
  Li  Li535  1  0.25000000  0.30632350  0.76982600  1
  Li  Li536  1  0.25000000  0.55632350  0.01982600  1
  Li  Li537  1  0.25000000  0.55632350  0.26982600  1
  Li  Li538  1  0.25000000  0.55632350  0.51982600  1
  Li  Li539  1  0.25000000  0.55632350  0.76982600  1
  Li  Li540  1  0.25000000  0.80632350  0.01982600  1
  Li  Li541  1  0.25000000  0.80632350  0.26982600  1
  Li  Li542  1  0.25000000  0.80632350  0.51982600  1
  Li  Li543  1  0.25000000  0.80632350  0.76982600  1
  Li  Li544  1  0.50000000  0.05632350  0.01982600  1
  Li  Li545  1  0.50000000  0.05632350  0.26982600  1
  Li  Li546  1  0.50000000  0.05632350  0.51982600  1
  Li  Li547  1  0.50000000  0.05632350  0.76982600  1
  Li  Li548  1  0.50000000  0.30632350  0.01982600  1
  Li  Li549  1  0.50000000  0.30632350  0.26982600  1
  Li  Li550  1  0.50000000  0.30632350  0.51982600  1
  Li  Li551  1  0.50000000  0.30632350  0.76982600  1
  Li  Li552  1  0.50000000  0.55632350  0.01982600  1
  Li  Li553  1  0.50000000  0.55632350  0.26982600  1
  Li  Li554  1  0.50000000  0.55632350  0.51982600  1
  Li  Li555  1  0.50000000  0.55632350  0.76982600  1
  Li  Li556  1  0.50000000  0.80632350  0.01982600  1
  Li  Li557  1  0.50000000  0.80632350  0.26982600  1
  Li  Li558  1  0.50000000  0.80632350  0.51982600  1
  Li  Li559  1  0.50000000  0.80632350  0.76982600  1
  Li  Li560  1  0.75000000  0.05632350  0.01982600  1
  Li  Li561  1  0.75000000  0.05632350  0.26982600  1
  Li  Li562  1  0.75000000  0.05632350  0.51982600  1
  Li  Li563  1  0.75000000  0.05632350  0.76982600  1
  Li  Li564  1  0.75000000  0.30632350  0.01982600  1
  Li  Li565  1  0.75000000  0.30632350  0.26982600  1
  Li  Li566  1  0.75000000  0.30632350  0.51982600  1
  Li  Li567  1  0.75000000  0.30632350  0.76982600  1
  Li  Li568  1  0.75000000  0.55632350  0.01982600  1
  Li  Li569  1  0.75000000  0.55632350  0.26982600  1
  Li  Li570  1  0.75000000  0.55632350  0.51982600  1
  Li  Li571  1  0.75000000  0.55632350  0.76982600  1
  Li  Li572  1  0.75000000  0.80632350  0.01982600  1
  Li  Li573  1  0.75000000  0.80632350  0.26982600  1
  Li  Li574  1  0.75000000  0.80632350  0.51982600  1
  Li  Li575  1  0.75000000  0.80632350  0.76982600  1
  Li  Li576  1  1.00000000  0.18320275  0.23519725  1
  Li  Li577  1  1.00000000  0.18320275  0.48519725  1
  Li  Li578  1  1.00000000  0.18320275  0.73519725  1
  Li  Li579  1  1.00000000  0.18320275  0.98519725  1
  Li  Li580  1  1.00000000  0.43320275  0.23519725  1
  Li  Li581  1  1.00000000  0.43320275  0.48519725  1
  Li  Li582  1  1.00000000  0.43320275  0.73519725  1
  Li  Li583  1  1.00000000  0.43320275  0.98519725  1
  Li  Li584  1  1.00000000  0.68320275  0.23519725  1
  Li  Li585  1  1.00000000  0.68320275  0.48519725  1
  Li  Li586  1  1.00000000  0.68320275  0.73519725  1
  Li  Li587  1  1.00000000  0.68320275  0.98519725  1
  Li  Li588  1  1.00000000  0.93320275  0.23519725  1
  Li  Li589  1  1.00000000  0.93320275  0.48519725  1
  Li  Li590  1  1.00000000  0.93320275  0.73519725  1
  Li  Li591  1  1.00000000  0.93320275  0.98519725  1
  Li  Li592  1  0.25000000  0.18320275  0.23519725  1
  Li  Li593  1  0.25000000  0.18320275  0.48519725  1
  Li  Li594  1  0.25000000  0.18320275  0.73519725  1
  Li  Li595  1  0.25000000  0.18320275  0.98519725  1
  Li  Li596  1  0.25000000  0.43320275  0.23519725  1
  Li  Li597  1  0.25000000  0.43320275  0.48519725  1
  Li  Li598  1  0.25000000  0.43320275  0.73519725  1
  Li  Li599  1  0.25000000  0.43320275  0.98519725  1
  Li  Li600  1  0.25000000  0.68320275  0.23519725  1
  Li  Li601  1  0.25000000  0.68320275  0.48519725  1
  Li  Li602  1  0.25000000  0.68320275  0.73519725  1
  Li  Li603  1  0.25000000  0.68320275  0.98519725  1
  Li  Li604  1  0.25000000  0.93320275  0.23519725  1
  Li  Li605  1  0.25000000  0.93320275  0.48519725  1
  Li  Li606  1  0.25000000  0.93320275  0.73519725  1
  Li  Li607  1  0.25000000  0.93320275  0.98519725  1
  Li  Li608  1  0.50000000  0.18320275  0.23519725  1
  Li  Li609  1  0.50000000  0.18320275  0.48519725  1
  Li  Li610  1  0.50000000  0.18320275  0.73519725  1
  Li  Li611  1  0.50000000  0.18320275  0.98519725  1
  Li  Li612  1  0.50000000  0.43320275  0.23519725  1
  Li  Li613  1  0.50000000  0.43320275  0.48519725  1
  Li  Li614  1  0.50000000  0.43320275  0.73519725  1
  Li  Li615  1  0.50000000  0.43320275  0.98519725  1
  Li  Li616  1  0.50000000  0.68320275  0.23519725  1
  Li  Li617  1  0.50000000  0.68320275  0.48519725  1
  Li  Li618  1  0.50000000  0.68320275  0.73519725  1
  Li  Li619  1  0.50000000  0.68320275  0.98519725  1
  Li  Li620  1  0.50000000  0.93320275  0.23519725  1
  Li  Li621  1  0.50000000  0.93320275  0.48519725  1
  Li  Li622  1  0.50000000  0.93320275  0.73519725  1
  Li  Li623  1  0.50000000  0.93320275  0.98519725  1
  Li  Li624  1  0.75000000  0.18320275  0.23519725  1
  Li  Li625  1  0.75000000  0.18320275  0.48519725  1
  Li  Li626  1  0.75000000  0.18320275  0.73519725  1
  Li  Li627  1  0.75000000  0.18320275  0.98519725  1
  Li  Li628  1  0.75000000  0.43320275  0.23519725  1
  Li  Li629  1  0.75000000  0.43320275  0.48519725  1
  Li  Li630  1  0.75000000  0.43320275  0.73519725  1
  Li  Li631  1  0.75000000  0.43320275  0.98519725  1
  Li  Li632  1  0.75000000  0.68320275  0.23519725  1
  Li  Li633  1  0.75000000  0.68320275  0.48519725  1
  Li  Li634  1  0.75000000  0.68320275  0.73519725  1
  Li  Li635  1  0.75000000  0.68320275  0.98519725  1
  Li  Li636  1  0.75000000  0.93320275  0.23519725  1
  Li  Li637  1  0.75000000  0.93320275  0.48519725  1
  Li  Li638  1  0.75000000  0.93320275  0.73519725  1
  Li  Li639  1  0.75000000  0.93320275  0.98519725  1
  Li  Li640  1  0.19367650  1.00000000  0.14482600  1
  Li  Li641  1  0.19367650  1.00000000  0.39482600  1
  Li  Li642  1  0.19367650  1.00000000  0.64482600  1
  Li  Li643  1  0.19367650  1.00000000  0.89482600  1
  Li  Li644  1  0.19367650  0.25000000  0.14482600  1
  Li  Li645  1  0.19367650  0.25000000  0.39482600  1
  Li  Li646  1  0.19367650  0.25000000  0.64482600  1
  Li  Li647  1  0.19367650  0.25000000  0.89482600  1
  Li  Li648  1  0.19367650  0.50000000  0.14482600  1
  Li  Li649  1  0.19367650  0.50000000  0.39482600  1
  Li  Li650  1  0.19367650  0.50000000  0.64482600  1
  Li  Li651  1  0.19367650  0.50000000  0.89482600  1
  Li  Li652  1  0.19367650  0.75000000  0.14482600  1
  Li  Li653  1  0.19367650  0.75000000  0.39482600  1
  Li  Li654  1  0.19367650  0.75000000  0.64482600  1
  Li  Li655  1  0.19367650  0.75000000  0.89482600  1
  Li  Li656  1  0.44367650  0.00000000  0.14482600  1
  Li  Li657  1  0.44367650  0.00000000  0.39482600  1
  Li  Li658  1  0.44367650  0.00000000  0.64482600  1
  Li  Li659  1  0.44367650  0.00000000  0.89482600  1
  Li  Li660  1  0.44367650  0.25000000  0.14482600  1
  Li  Li661  1  0.44367650  0.25000000  0.39482600  1
  Li  Li662  1  0.44367650  0.25000000  0.64482600  1
  Li  Li663  1  0.44367650  0.25000000  0.89482600  1
  Li  Li664  1  0.44367650  0.50000000  0.14482600  1
  Li  Li665  1  0.44367650  0.50000000  0.39482600  1
  Li  Li666  1  0.44367650  0.50000000  0.64482600  1
  Li  Li667  1  0.44367650  0.50000000  0.89482600  1
  Li  Li668  1  0.44367650  0.75000000  0.14482600  1
  Li  Li669  1  0.44367650  0.75000000  0.39482600  1
  Li  Li670  1  0.44367650  0.75000000  0.64482600  1
  Li  Li671  1  0.44367650  0.75000000  0.89482600  1
  Li  Li672  1  0.69367650  1.00000000  0.14482600  1
  Li  Li673  1  0.69367650  1.00000000  0.39482600  1
  Li  Li674  1  0.69367650  1.00000000  0.64482600  1
  Li  Li675  1  0.69367650  1.00000000  0.89482600  1
  Li  Li676  1  0.69367650  0.25000000  0.14482600  1
  Li  Li677  1  0.69367650  0.25000000  0.39482600  1
  Li  Li678  1  0.69367650  0.25000000  0.64482600  1
  Li  Li679  1  0.69367650  0.25000000  0.89482600  1
  Li  Li680  1  0.69367650  0.50000000  0.14482600  1
  Li  Li681  1  0.69367650  0.50000000  0.39482600  1
  Li  Li682  1  0.69367650  0.50000000  0.64482600  1
  Li  Li683  1  0.69367650  0.50000000  0.89482600  1
  Li  Li684  1  0.69367650  0.75000000  0.14482600  1
  Li  Li685  1  0.69367650  0.75000000  0.39482600  1
  Li  Li686  1  0.69367650  0.75000000  0.64482600  1
  Li  Li687  1  0.69367650  0.75000000  0.89482600  1
  Li  Li688  1  0.94367650  1.00000000  0.14482600  1
  Li  Li689  1  0.94367650  1.00000000  0.39482600  1
  Li  Li690  1  0.94367650  1.00000000  0.64482600  1
  Li  Li691  1  0.94367650  1.00000000  0.89482600  1
  Li  Li692  1  0.94367650  0.25000000  0.14482600  1
  Li  Li693  1  0.94367650  0.25000000  0.39482600  1
  Li  Li694  1  0.94367650  0.25000000  0.64482600  1
  Li  Li695  1  0.94367650  0.25000000  0.89482600  1
  Li  Li696  1  0.94367650  0.50000000  0.14482600  1
  Li  Li697  1  0.94367650  0.50000000  0.39482600  1
  Li  Li698  1  0.94367650  0.50000000  0.64482600  1
  Li  Li699  1  0.94367650  0.50000000  0.89482600  1
  Li  Li700  1  0.94367650  0.75000000  0.14482600  1
  Li  Li701  1  0.94367650  0.75000000  0.39482600  1
  Li  Li702  1  0.94367650  0.75000000  0.64482600  1
  Li  Li703  1  0.94367650  0.75000000  0.89482600  1
  Li  Li704  1  0.18320275  0.18320275  0.11019725  1
  Li  Li705  1  0.18320275  0.18320275  0.36019725  1
  Li  Li706  1  0.18320275  0.18320275  0.61019725  1
  Li  Li707  1  0.18320275  0.18320275  0.86019725  1
  Li  Li708  1  0.18320275  0.43320275  0.11019725  1
  Li  Li709  1  0.18320275  0.43320275  0.36019725  1
  Li  Li710  1  0.18320275  0.43320275  0.61019725  1
  Li  Li711  1  0.18320275  0.43320275  0.86019725  1
  Li  Li712  1  0.18320275  0.68320275  0.11019725  1
  Li  Li713  1  0.18320275  0.68320275  0.36019725  1
  Li  Li714  1  0.18320275  0.68320275  0.61019725  1
  Li  Li715  1  0.18320275  0.68320275  0.86019725  1
  Li  Li716  1  0.18320275  0.93320275  0.11019725  1
  Li  Li717  1  0.18320275  0.93320275  0.36019725  1
  Li  Li718  1  0.18320275  0.93320275  0.61019725  1
  Li  Li719  1  0.18320275  0.93320275  0.86019725  1
  Li  Li720  1  0.43320275  0.18320275  0.11019725  1
  Li  Li721  1  0.43320275  0.18320275  0.36019725  1
  Li  Li722  1  0.43320275  0.18320275  0.61019725  1
  Li  Li723  1  0.43320275  0.18320275  0.86019725  1
  Li  Li724  1  0.43320275  0.43320275  0.11019725  1
  Li  Li725  1  0.43320275  0.43320275  0.36019725  1
  Li  Li726  1  0.43320275  0.43320275  0.61019725  1
  Li  Li727  1  0.43320275  0.43320275  0.86019725  1
  Li  Li728  1  0.43320275  0.68320275  0.11019725  1
  Li  Li729  1  0.43320275  0.68320275  0.36019725  1
  Li  Li730  1  0.43320275  0.68320275  0.61019725  1
  Li  Li731  1  0.43320275  0.68320275  0.86019725  1
  Li  Li732  1  0.43320275  0.93320275  0.11019725  1
  Li  Li733  1  0.43320275  0.93320275  0.36019725  1
  Li  Li734  1  0.43320275  0.93320275  0.61019725  1
  Li  Li735  1  0.43320275  0.93320275  0.86019725  1
  Li  Li736  1  0.68320275  0.18320275  0.11019725  1
  Li  Li737  1  0.68320275  0.18320275  0.36019725  1
  Li  Li738  1  0.68320275  0.18320275  0.61019725  1
  Li  Li739  1  0.68320275  0.18320275  0.86019725  1
  Li  Li740  1  0.68320275  0.43320275  0.11019725  1
  Li  Li741  1  0.68320275  0.43320275  0.36019725  1
  Li  Li742  1  0.68320275  0.43320275  0.61019725  1
  Li  Li743  1  0.68320275  0.43320275  0.86019725  1
  Li  Li744  1  0.68320275  0.68320275  0.11019725  1
  Li  Li745  1  0.68320275  0.68320275  0.36019725  1
  Li  Li746  1  0.68320275  0.68320275  0.61019725  1
  Li  Li747  1  0.68320275  0.68320275  0.86019725  1
  Li  Li748  1  0.68320275  0.93320275  0.11019725  1
  Li  Li749  1  0.68320275  0.93320275  0.36019725  1
  Li  Li750  1  0.68320275  0.93320275  0.61019725  1
  Li  Li751  1  0.68320275  0.93320275  0.86019725  1
  Li  Li752  1  0.93320275  0.18320275  0.11019725  1
  Li  Li753  1  0.93320275  0.18320275  0.36019725  1
  Li  Li754  1  0.93320275  0.18320275  0.61019725  1
  Li  Li755  1  0.93320275  0.18320275  0.86019725  1
  Li  Li756  1  0.93320275  0.43320275  0.11019725  1
  Li  Li757  1  0.93320275  0.43320275  0.36019725  1
  Li  Li758  1  0.93320275  0.43320275  0.61019725  1
  Li  Li759  1  0.93320275  0.43320275  0.86019725  1
  Li  Li760  1  0.93320275  0.68320275  0.11019725  1
  Li  Li761  1  0.93320275  0.68320275  0.36019725  1
  Li  Li762  1  0.93320275  0.68320275  0.61019725  1
  Li  Li763  1  0.93320275  0.68320275  0.86019725  1
  Li  Li764  1  0.93320275  0.93320275  0.11019725  1
  Li  Li765  1  0.93320275  0.93320275  0.36019725  1
  Li  Li766  1  0.93320275  0.93320275  0.61019725  1
  Li  Li767  1  0.93320275  0.93320275  0.86019725  1
  Li  Li768  1  1.00000000  0.19367650  0.14482600  1
  Li  Li769  1  1.00000000  0.19367650  0.39482600  1
  Li  Li770  1  1.00000000  0.19367650  0.64482600  1
  Li  Li771  1  1.00000000  0.19367650  0.89482600  1
  Li  Li772  1  1.00000000  0.44367650  0.14482600  1
  Li  Li773  1  1.00000000  0.44367650  0.39482600  1
  Li  Li774  1  1.00000000  0.44367650  0.64482600  1
  Li  Li775  1  1.00000000  0.44367650  0.89482600  1
  Li  Li776  1  1.00000000  0.69367650  0.14482600  1
  Li  Li777  1  1.00000000  0.69367650  0.39482600  1
  Li  Li778  1  1.00000000  0.69367650  0.64482600  1
  Li  Li779  1  1.00000000  0.69367650  0.89482600  1
  Li  Li780  1  1.00000000  0.94367650  0.14482600  1
  Li  Li781  1  1.00000000  0.94367650  0.39482600  1
  Li  Li782  1  1.00000000  0.94367650  0.64482600  1
  Li  Li783  1  1.00000000  0.94367650  0.89482600  1
  Li  Li784  1  0.25000000  0.19367650  0.14482600  1
  Li  Li785  1  0.25000000  0.19367650  0.39482600  1
  Li  Li786  1  0.25000000  0.19367650  0.64482600  1
  Li  Li787  1  0.25000000  0.19367650  0.89482600  1
  Li  Li788  1  0.25000000  0.44367650  0.14482600  1
  Li  Li789  1  0.25000000  0.44367650  0.39482600  1
  Li  Li790  1  0.25000000  0.44367650  0.64482600  1
  Li  Li791  1  0.25000000  0.44367650  0.89482600  1
  Li  Li792  1  0.25000000  0.69367650  0.14482600  1
  Li  Li793  1  0.25000000  0.69367650  0.39482600  1
  Li  Li794  1  0.25000000  0.69367650  0.64482600  1
  Li  Li795  1  0.25000000  0.69367650  0.89482600  1
  Li  Li796  1  0.25000000  0.94367650  0.14482600  1
  Li  Li797  1  0.25000000  0.94367650  0.39482600  1
  Li  Li798  1  0.25000000  0.94367650  0.64482600  1
  Li  Li799  1  0.25000000  0.94367650  0.89482600  1
  Li  Li800  1  0.50000000  0.19367650  0.14482600  1
  Li  Li801  1  0.50000000  0.19367650  0.39482600  1
  Li  Li802  1  0.50000000  0.19367650  0.64482600  1
  Li  Li803  1  0.50000000  0.19367650  0.89482600  1
  Li  Li804  1  0.50000000  0.44367650  0.14482600  1
  Li  Li805  1  0.50000000  0.44367650  0.39482600  1
  Li  Li806  1  0.50000000  0.44367650  0.64482600  1
  Li  Li807  1  0.50000000  0.44367650  0.89482600  1
  Li  Li808  1  0.50000000  0.69367650  0.14482600  1
  Li  Li809  1  0.50000000  0.69367650  0.39482600  1
  Li  Li810  1  0.50000000  0.69367650  0.64482600  1
  Li  Li811  1  0.50000000  0.69367650  0.89482600  1
  Li  Li812  1  0.50000000  0.94367650  0.14482600  1
  Li  Li813  1  0.50000000  0.94367650  0.39482600  1
  Li  Li814  1  0.50000000  0.94367650  0.64482600  1
  Li  Li815  1  0.50000000  0.94367650  0.89482600  1
  Li  Li816  1  0.75000000  0.19367650  0.14482600  1
  Li  Li817  1  0.75000000  0.19367650  0.39482600  1
  Li  Li818  1  0.75000000  0.19367650  0.64482600  1
  Li  Li819  1  0.75000000  0.19367650  0.89482600  1
  Li  Li820  1  0.75000000  0.44367650  0.14482600  1
  Li  Li821  1  0.75000000  0.44367650  0.39482600  1
  Li  Li822  1  0.75000000  0.44367650  0.64482600  1
  Li  Li823  1  0.75000000  0.44367650  0.89482600  1
  Li  Li824  1  0.75000000  0.69367650  0.14482600  1
  Li  Li825  1  0.75000000  0.69367650  0.39482600  1
  Li  Li826  1  0.75000000  0.69367650  0.64482600  1
  Li  Li827  1  0.75000000  0.69367650  0.89482600  1
  Li  Li828  1  0.75000000  0.94367650  0.14482600  1
  Li  Li829  1  0.75000000  0.94367650  0.39482600  1
  Li  Li830  1  0.75000000  0.94367650  0.64482600  1
  Li  Li831  1  0.75000000  0.94367650  0.89482600  1
  Li  Li832  1  0.05632350  0.05632350  0.14482600  1
  Li  Li833  1  0.05632350  0.05632350  0.39482600  1
  Li  Li834  1  0.05632350  0.05632350  0.64482600  1
  Li  Li835  1  0.05632350  0.05632350  0.89482600  1
  Li  Li836  1  0.05632350  0.30632350  0.14482600  1
  Li  Li837  1  0.05632350  0.30632350  0.39482600  1
  Li  Li838  1  0.05632350  0.30632350  0.64482600  1
  Li  Li839  1  0.05632350  0.30632350  0.89482600  1
  Li  Li840  1  0.05632350  0.55632350  0.14482600  1
  Li  Li841  1  0.05632350  0.55632350  0.39482600  1
  Li  Li842  1  0.05632350  0.55632350  0.64482600  1
  Li  Li843  1  0.05632350  0.55632350  0.89482600  1
  Li  Li844  1  0.05632350  0.80632350  0.14482600  1
  Li  Li845  1  0.05632350  0.80632350  0.39482600  1
  Li  Li846  1  0.05632350  0.80632350  0.64482600  1
  Li  Li847  1  0.05632350  0.80632350  0.89482600  1
  Li  Li848  1  0.30632350  0.05632350  0.14482600  1
  Li  Li849  1  0.30632350  0.05632350  0.39482600  1
  Li  Li850  1  0.30632350  0.05632350  0.64482600  1
  Li  Li851  1  0.30632350  0.05632350  0.89482600  1
  Li  Li852  1  0.30632350  0.30632350  0.14482600  1
  Li  Li853  1  0.30632350  0.30632350  0.39482600  1
  Li  Li854  1  0.30632350  0.30632350  0.64482600  1
  Li  Li855  1  0.30632350  0.30632350  0.89482600  1
  Li  Li856  1  0.30632350  0.55632350  0.14482600  1
  Li  Li857  1  0.30632350  0.55632350  0.39482600  1
  Li  Li858  1  0.30632350  0.55632350  0.64482600  1
  Li  Li859  1  0.30632350  0.55632350  0.89482600  1
  Li  Li860  1  0.30632350  0.80632350  0.14482600  1
  Li  Li861  1  0.30632350  0.80632350  0.39482600  1
  Li  Li862  1  0.30632350  0.80632350  0.64482600  1
  Li  Li863  1  0.30632350  0.80632350  0.89482600  1
  Li  Li864  1  0.55632350  0.05632350  0.14482600  1
  Li  Li865  1  0.55632350  0.05632350  0.39482600  1
  Li  Li866  1  0.55632350  0.05632350  0.64482600  1
  Li  Li867  1  0.55632350  0.05632350  0.89482600  1
  Li  Li868  1  0.55632350  0.30632350  0.14482600  1
  Li  Li869  1  0.55632350  0.30632350  0.39482600  1
  Li  Li870  1  0.55632350  0.30632350  0.64482600  1
  Li  Li871  1  0.55632350  0.30632350  0.89482600  1
  Li  Li872  1  0.55632350  0.55632350  0.14482600  1
  Li  Li873  1  0.55632350  0.55632350  0.39482600  1
  Li  Li874  1  0.55632350  0.55632350  0.64482600  1
  Li  Li875  1  0.55632350  0.55632350  0.89482600  1
  Li  Li876  1  0.55632350  0.80632350  0.14482600  1
  Li  Li877  1  0.55632350  0.80632350  0.39482600  1
  Li  Li878  1  0.55632350  0.80632350  0.64482600  1
  Li  Li879  1  0.55632350  0.80632350  0.89482600  1
  Li  Li880  1  0.80632350  0.05632350  0.14482600  1
  Li  Li881  1  0.80632350  0.05632350  0.39482600  1
  Li  Li882  1  0.80632350  0.05632350  0.64482600  1
  Li  Li883  1  0.80632350  0.05632350  0.89482600  1
  Li  Li884  1  0.80632350  0.30632350  0.14482600  1
  Li  Li885  1  0.80632350  0.30632350  0.39482600  1
  Li  Li886  1  0.80632350  0.30632350  0.64482600  1
  Li  Li887  1  0.80632350  0.30632350  0.89482600  1
  Li  Li888  1  0.80632350  0.55632350  0.14482600  1
  Li  Li889  1  0.80632350  0.55632350  0.39482600  1
  Li  Li890  1  0.80632350  0.55632350  0.64482600  1
  Li  Li891  1  0.80632350  0.55632350  0.89482600  1
  Li  Li892  1  0.80632350  0.80632350  0.14482600  1
  Li  Li893  1  0.80632350  0.80632350  0.39482600  1
  Li  Li894  1  0.80632350  0.80632350  0.64482600  1
  Li  Li895  1  0.80632350  0.80632350  0.89482600  1
  Li  Li896  1  1.00000000  0.06679725  0.11019725  1
  Li  Li897  1  1.00000000  0.06679725  0.36019725  1
  Li  Li898  1  1.00000000  0.06679725  0.61019725  1
  Li  Li899  1  1.00000000  0.06679725  0.86019725  1
  Li  Li900  1  1.00000000  0.31679725  0.11019725  1
  Li  Li901  1  1.00000000  0.31679725  0.36019725  1
  Li  Li902  1  1.00000000  0.31679725  0.61019725  1
  Li  Li903  1  1.00000000  0.31679725  0.86019725  1
  Li  Li904  1  1.00000000  0.56679725  0.11019725  1
  Li  Li905  1  1.00000000  0.56679725  0.36019725  1
  Li  Li906  1  1.00000000  0.56679725  0.61019725  1
  Li  Li907  1  1.00000000  0.56679725  0.86019725  1
  Li  Li908  1  1.00000000  0.81679725  0.11019725  1
  Li  Li909  1  1.00000000  0.81679725  0.36019725  1
  Li  Li910  1  1.00000000  0.81679725  0.61019725  1
  Li  Li911  1  1.00000000  0.81679725  0.86019725  1
  Li  Li912  1  0.25000000  0.06679725  0.11019725  1
  Li  Li913  1  0.25000000  0.06679725  0.36019725  1
  Li  Li914  1  0.25000000  0.06679725  0.61019725  1
  Li  Li915  1  0.25000000  0.06679725  0.86019725  1
  Li  Li916  1  0.25000000  0.31679725  0.11019725  1
  Li  Li917  1  0.25000000  0.31679725  0.36019725  1
  Li  Li918  1  0.25000000  0.31679725  0.61019725  1
  Li  Li919  1  0.25000000  0.31679725  0.86019725  1
  Li  Li920  1  0.25000000  0.56679725  0.11019725  1
  Li  Li921  1  0.25000000  0.56679725  0.36019725  1
  Li  Li922  1  0.25000000  0.56679725  0.61019725  1
  Li  Li923  1  0.25000000  0.56679725  0.86019725  1
  Li  Li924  1  0.25000000  0.81679725  0.11019725  1
  Li  Li925  1  0.25000000  0.81679725  0.36019725  1
  Li  Li926  1  0.25000000  0.81679725  0.61019725  1
  Li  Li927  1  0.25000000  0.81679725  0.86019725  1
  Li  Li928  1  0.50000000  0.06679725  0.11019725  1
  Li  Li929  1  0.50000000  0.06679725  0.36019725  1
  Li  Li930  1  0.50000000  0.06679725  0.61019725  1
  Li  Li931  1  0.50000000  0.06679725  0.86019725  1
  Li  Li932  1  0.50000000  0.31679725  0.11019725  1
  Li  Li933  1  0.50000000  0.31679725  0.36019725  1
  Li  Li934  1  0.50000000  0.31679725  0.61019725  1
  Li  Li935  1  0.50000000  0.31679725  0.86019725  1
  Li  Li936  1  0.50000000  0.56679725  0.11019725  1
  Li  Li937  1  0.50000000  0.56679725  0.36019725  1
  Li  Li938  1  0.50000000  0.56679725  0.61019725  1
  Li  Li939  1  0.50000000  0.56679725  0.86019725  1
  Li  Li940  1  0.50000000  0.81679725  0.11019725  1
  Li  Li941  1  0.50000000  0.81679725  0.36019725  1
  Li  Li942  1  0.50000000  0.81679725  0.61019725  1
  Li  Li943  1  0.50000000  0.81679725  0.86019725  1
  Li  Li944  1  0.75000000  0.06679725  0.11019725  1
  Li  Li945  1  0.75000000  0.06679725  0.36019725  1
  Li  Li946  1  0.75000000  0.06679725  0.61019725  1
  Li  Li947  1  0.75000000  0.06679725  0.86019725  1
  Li  Li948  1  0.75000000  0.31679725  0.11019725  1
  Li  Li949  1  0.75000000  0.31679725  0.36019725  1
  Li  Li950  1  0.75000000  0.31679725  0.61019725  1
  Li  Li951  1  0.75000000  0.31679725  0.86019725  1
  Li  Li952  1  0.75000000  0.56679725  0.11019725  1
  Li  Li953  1  0.75000000  0.56679725  0.36019725  1
  Li  Li954  1  0.75000000  0.56679725  0.61019725  1
  Li  Li955  1  0.75000000  0.56679725  0.86019725  1
  Li  Li956  1  0.75000000  0.81679725  0.11019725  1
  Li  Li957  1  0.75000000  0.81679725  0.36019725  1
  Li  Li958  1  0.75000000  0.81679725  0.61019725  1
  Li  Li959  1  0.75000000  0.81679725  0.86019725  1
  Li  Li960  1  0.06679725  1.00000000  0.11019725  1
  Li  Li961  1  0.06679725  1.00000000  0.36019725  1
  Li  Li962  1  0.06679725  1.00000000  0.61019725  1
  Li  Li963  1  0.06679725  1.00000000  0.86019725  1
  Li  Li964  1  0.06679725  0.25000000  0.11019725  1
  Li  Li965  1  0.06679725  0.25000000  0.36019725  1
  Li  Li966  1  0.06679725  0.25000000  0.61019725  1
  Li  Li967  1  0.06679725  0.25000000  0.86019725  1
  Li  Li968  1  0.06679725  0.50000000  0.11019725  1
  Li  Li969  1  0.06679725  0.50000000  0.36019725  1
  Li  Li970  1  0.06679725  0.50000000  0.61019725  1
  Li  Li971  1  0.06679725  0.50000000  0.86019725  1
  Li  Li972  1  0.06679725  0.75000000  0.11019725  1
  Li  Li973  1  0.06679725  0.75000000  0.36019725  1
  Li  Li974  1  0.06679725  0.75000000  0.61019725  1
  Li  Li975  1  0.06679725  0.75000000  0.86019725  1
  Li  Li976  1  0.31679725  0.00000000  0.11019725  1
  Li  Li977  1  0.31679725  0.00000000  0.36019725  1
  Li  Li978  1  0.31679725  0.00000000  0.61019725  1
  Li  Li979  1  0.31679725  0.00000000  0.86019725  1
  Li  Li980  1  0.31679725  0.25000000  0.11019725  1
  Li  Li981  1  0.31679725  0.25000000  0.36019725  1
  Li  Li982  1  0.31679725  0.25000000  0.61019725  1
  Li  Li983  1  0.31679725  0.25000000  0.86019725  1
  Li  Li984  1  0.31679725  0.50000000  0.11019725  1
  Li  Li985  1  0.31679725  0.50000000  0.36019725  1
  Li  Li986  1  0.31679725  0.50000000  0.61019725  1
  Li  Li987  1  0.31679725  0.50000000  0.86019725  1
  Li  Li988  1  0.31679725  0.75000000  0.11019725  1
  Li  Li989  1  0.31679725  0.75000000  0.36019725  1
  Li  Li990  1  0.31679725  0.75000000  0.61019725  1
  Li  Li991  1  0.31679725  0.75000000  0.86019725  1
  Li  Li992  1  0.56679725  1.00000000  0.11019725  1
  Li  Li993  1  0.56679725  1.00000000  0.36019725  1
  Li  Li994  1  0.56679725  1.00000000  0.61019725  1
  Li  Li995  1  0.56679725  1.00000000  0.86019725  1
  Li  Li996  1  0.56679725  0.25000000  0.11019725  1
  Li  Li997  1  0.56679725  0.25000000  0.36019725  1
  Li  Li998  1  0.56679725  0.25000000  0.61019725  1
  Li  Li999  1  0.56679725  0.25000000  0.86019725  1
  Li  Li1000  1  0.56679725  0.50000000  0.11019725  1
  Li  Li1001  1  0.56679725  0.50000000  0.36019725  1
  Li  Li1002  1  0.56679725  0.50000000  0.61019725  1
  Li  Li1003  1  0.56679725  0.50000000  0.86019725  1
  Li  Li1004  1  0.56679725  0.75000000  0.11019725  1
  Li  Li1005  1  0.56679725  0.75000000  0.36019725  1
  Li  Li1006  1  0.56679725  0.75000000  0.61019725  1
  Li  Li1007  1  0.56679725  0.75000000  0.86019725  1
  Li  Li1008  1  0.81679725  1.00000000  0.11019725  1
  Li  Li1009  1  0.81679725  1.00000000  0.36019725  1
  Li  Li1010  1  0.81679725  1.00000000  0.61019725  1
  Li  Li1011  1  0.81679725  1.00000000  0.86019725  1
  Li  Li1012  1  0.81679725  0.25000000  0.11019725  1
  Li  Li1013  1  0.81679725  0.25000000  0.36019725  1
  Li  Li1014  1  0.81679725  0.25000000  0.61019725  1
  Li  Li1015  1  0.81679725  0.25000000  0.86019725  1
  Li  Li1016  1  0.81679725  0.50000000  0.11019725  1
  Li  Li1017  1  0.81679725  0.50000000  0.36019725  1
  Li  Li1018  1  0.81679725  0.50000000  0.61019725  1
  Li  Li1019  1  0.81679725  0.50000000  0.86019725  1
  Li  Li1020  1  0.81679725  0.75000000  0.11019725  1
  Li  Li1021  1  0.81679725  0.75000000  0.36019725  1
  Li  Li1022  1  0.81679725  0.75000000  0.61019725  1
  Li  Li1023  1  0.81679725  0.75000000  0.86019725  1
  Li  Li1024  1  0.06679725  0.06679725  0.23519725  1
  Li  Li1025  1  0.06679725  0.06679725  0.48519725  1
  Li  Li1026  1  0.06679725  0.06679725  0.73519725  1
  Li  Li1027  1  0.06679725  0.06679725  0.98519725  1
  Li  Li1028  1  0.06679725  0.31679725  0.23519725  1
  Li  Li1029  1  0.06679725  0.31679725  0.48519725  1
  Li  Li1030  1  0.06679725  0.31679725  0.73519725  1
  Li  Li1031  1  0.06679725  0.31679725  0.98519725  1
  Li  Li1032  1  0.06679725  0.56679725  0.23519725  1
  Li  Li1033  1  0.06679725  0.56679725  0.48519725  1
  Li  Li1034  1  0.06679725  0.56679725  0.73519725  1
  Li  Li1035  1  0.06679725  0.56679725  0.98519725  1
  Li  Li1036  1  0.06679725  0.81679725  0.23519725  1
  Li  Li1037  1  0.06679725  0.81679725  0.48519725  1
  Li  Li1038  1  0.06679725  0.81679725  0.73519725  1
  Li  Li1039  1  0.06679725  0.81679725  0.98519725  1
  Li  Li1040  1  0.31679725  0.06679725  0.23519725  1
  Li  Li1041  1  0.31679725  0.06679725  0.48519725  1
  Li  Li1042  1  0.31679725  0.06679725  0.73519725  1
  Li  Li1043  1  0.31679725  0.06679725  0.98519725  1
  Li  Li1044  1  0.31679725  0.31679725  0.23519725  1
  Li  Li1045  1  0.31679725  0.31679725  0.48519725  1
  Li  Li1046  1  0.31679725  0.31679725  0.73519725  1
  Li  Li1047  1  0.31679725  0.31679725  0.98519725  1
  Li  Li1048  1  0.31679725  0.56679725  0.23519725  1
  Li  Li1049  1  0.31679725  0.56679725  0.48519725  1
  Li  Li1050  1  0.31679725  0.56679725  0.73519725  1
  Li  Li1051  1  0.31679725  0.56679725  0.98519725  1
  Li  Li1052  1  0.31679725  0.81679725  0.23519725  1
  Li  Li1053  1  0.31679725  0.81679725  0.48519725  1
  Li  Li1054  1  0.31679725  0.81679725  0.73519725  1
  Li  Li1055  1  0.31679725  0.81679725  0.98519725  1
  Li  Li1056  1  0.56679725  0.06679725  0.23519725  1
  Li  Li1057  1  0.56679725  0.06679725  0.48519725  1
  Li  Li1058  1  0.56679725  0.06679725  0.73519725  1
  Li  Li1059  1  0.56679725  0.06679725  0.98519725  1
  Li  Li1060  1  0.56679725  0.31679725  0.23519725  1
  Li  Li1061  1  0.56679725  0.31679725  0.48519725  1
  Li  Li1062  1  0.56679725  0.31679725  0.73519725  1
  Li  Li1063  1  0.56679725  0.31679725  0.98519725  1
  Li  Li1064  1  0.56679725  0.56679725  0.23519725  1
  Li  Li1065  1  0.56679725  0.56679725  0.48519725  1
  Li  Li1066  1  0.56679725  0.56679725  0.73519725  1
  Li  Li1067  1  0.56679725  0.56679725  0.98519725  1
  Li  Li1068  1  0.56679725  0.81679725  0.23519725  1
  Li  Li1069  1  0.56679725  0.81679725  0.48519725  1
  Li  Li1070  1  0.56679725  0.81679725  0.73519725  1
  Li  Li1071  1  0.56679725  0.81679725  0.98519725  1
  Li  Li1072  1  0.81679725  0.06679725  0.23519725  1
  Li  Li1073  1  0.81679725  0.06679725  0.48519725  1
  Li  Li1074  1  0.81679725  0.06679725  0.73519725  1
  Li  Li1075  1  0.81679725  0.06679725  0.98519725  1
  Li  Li1076  1  0.81679725  0.31679725  0.23519725  1
  Li  Li1077  1  0.81679725  0.31679725  0.48519725  1
  Li  Li1078  1  0.81679725  0.31679725  0.73519725  1
  Li  Li1079  1  0.81679725  0.31679725  0.98519725  1
  Li  Li1080  1  0.81679725  0.56679725  0.23519725  1
  Li  Li1081  1  0.81679725  0.56679725  0.48519725  1
  Li  Li1082  1  0.81679725  0.56679725  0.73519725  1
  Li  Li1083  1  0.81679725  0.56679725  0.98519725  1
  Li  Li1084  1  0.81679725  0.81679725  0.23519725  1
  Li  Li1085  1  0.81679725  0.81679725  0.48519725  1
  Li  Li1086  1  0.81679725  0.81679725  0.73519725  1
  Li  Li1087  1  0.81679725  0.81679725  0.98519725  1
  Li  Li1088  1  0.19367650  0.19367650  0.01982600  1
  Li  Li1089  1  0.19367650  0.19367650  0.26982600  1
  Li  Li1090  1  0.19367650  0.19367650  0.51982600  1
  Li  Li1091  1  0.19367650  0.19367650  0.76982600  1
  Li  Li1092  1  0.19367650  0.44367650  0.01982600  1
  Li  Li1093  1  0.19367650  0.44367650  0.26982600  1
  Li  Li1094  1  0.19367650  0.44367650  0.51982600  1
  Li  Li1095  1  0.19367650  0.44367650  0.76982600  1
  Li  Li1096  1  0.19367650  0.69367650  0.01982600  1
  Li  Li1097  1  0.19367650  0.69367650  0.26982600  1
  Li  Li1098  1  0.19367650  0.69367650  0.51982600  1
  Li  Li1099  1  0.19367650  0.69367650  0.76982600  1
  Li  Li1100  1  0.19367650  0.94367650  0.01982600  1
  Li  Li1101  1  0.19367650  0.94367650  0.26982600  1
  Li  Li1102  1  0.19367650  0.94367650  0.51982600  1
  Li  Li1103  1  0.19367650  0.94367650  0.76982600  1
  Li  Li1104  1  0.44367650  0.19367650  0.01982600  1
  Li  Li1105  1  0.44367650  0.19367650  0.26982600  1
  Li  Li1106  1  0.44367650  0.19367650  0.51982600  1
  Li  Li1107  1  0.44367650  0.19367650  0.76982600  1
  Li  Li1108  1  0.44367650  0.44367650  0.01982600  1
  Li  Li1109  1  0.44367650  0.44367650  0.26982600  1
  Li  Li1110  1  0.44367650  0.44367650  0.51982600  1
  Li  Li1111  1  0.44367650  0.44367650  0.76982600  1
  Li  Li1112  1  0.44367650  0.69367650  0.01982600  1
  Li  Li1113  1  0.44367650  0.69367650  0.26982600  1
  Li  Li1114  1  0.44367650  0.69367650  0.51982600  1
  Li  Li1115  1  0.44367650  0.69367650  0.76982600  1
  Li  Li1116  1  0.44367650  0.94367650  0.01982600  1
  Li  Li1117  1  0.44367650  0.94367650  0.26982600  1
  Li  Li1118  1  0.44367650  0.94367650  0.51982600  1
  Li  Li1119  1  0.44367650  0.94367650  0.76982600  1
  Li  Li1120  1  0.69367650  0.19367650  0.01982600  1
  Li  Li1121  1  0.69367650  0.19367650  0.26982600  1
  Li  Li1122  1  0.69367650  0.19367650  0.51982600  1
  Li  Li1123  1  0.69367650  0.19367650  0.76982600  1
  Li  Li1124  1  0.69367650  0.44367650  0.01982600  1
  Li  Li1125  1  0.69367650  0.44367650  0.26982600  1
  Li  Li1126  1  0.69367650  0.44367650  0.51982600  1
  Li  Li1127  1  0.69367650  0.44367650  0.76982600  1
  Li  Li1128  1  0.69367650  0.69367650  0.01982600  1
  Li  Li1129  1  0.69367650  0.69367650  0.26982600  1
  Li  Li1130  1  0.69367650  0.69367650  0.51982600  1
  Li  Li1131  1  0.69367650  0.69367650  0.76982600  1
  Li  Li1132  1  0.69367650  0.94367650  0.01982600  1
  Li  Li1133  1  0.69367650  0.94367650  0.26982600  1
  Li  Li1134  1  0.69367650  0.94367650  0.51982600  1
  Li  Li1135  1  0.69367650  0.94367650  0.76982600  1
  Li  Li1136  1  0.94367650  0.19367650  0.01982600  1
  Li  Li1137  1  0.94367650  0.19367650  0.26982600  1
  Li  Li1138  1  0.94367650  0.19367650  0.51982600  1
  Li  Li1139  1  0.94367650  0.19367650  0.76982600  1
  Li  Li1140  1  0.94367650  0.44367650  0.01982600  1
  Li  Li1141  1  0.94367650  0.44367650  0.26982600  1
  Li  Li1142  1  0.94367650  0.44367650  0.51982600  1
  Li  Li1143  1  0.94367650  0.44367650  0.76982600  1
  Li  Li1144  1  0.94367650  0.69367650  0.01982600  1
  Li  Li1145  1  0.94367650  0.69367650  0.26982600  1
  Li  Li1146  1  0.94367650  0.69367650  0.51982600  1
  Li  Li1147  1  0.94367650  0.69367650  0.76982600  1
  Li  Li1148  1  0.94367650  0.94367650  0.01982600  1
  Li  Li1149  1  0.94367650  0.94367650  0.26982600  1
  Li  Li1150  1  0.94367650  0.94367650  0.51982600  1
  Li  Li1151  1  0.94367650  0.94367650  0.76982600  1
  Si  Si1152  1  0.16666675  0.08333325  0.24558975  1
  Si  Si1153  1  0.16666675  0.08333325  0.49558975  1
  Si  Si1154  1  0.16666675  0.08333325  0.74558975  1
  Si  Si1155  1  0.16666675  0.08333325  0.99558975  1
  Si  Si1156  1  0.16666675  0.33333325  0.24558975  1
  Si  Si1157  1  0.16666675  0.33333325  0.49558975  1
  Si  Si1158  1  0.16666675  0.33333325  0.74558975  1
  Si  Si1159  1  0.16666675  0.33333325  0.99558975  1
  Si  Si1160  1  0.16666675  0.58333325  0.24558975  1
  Si  Si1161  1  0.16666675  0.58333325  0.49558975  1
  Si  Si1162  1  0.16666675  0.58333325  0.74558975  1
  Si  Si1163  1  0.16666675  0.58333325  0.99558975  1
  Si  Si1164  1  0.16666675  0.83333325  0.24558975  1
  Si  Si1165  1  0.16666675  0.83333325  0.49558975  1
  Si  Si1166  1  0.16666675  0.83333325  0.74558975  1
  Si  Si1167  1  0.16666675  0.83333325  0.99558975  1
  Si  Si1168  1  0.41666675  0.08333325  0.24558975  1
  Si  Si1169  1  0.41666675  0.08333325  0.49558975  1
  Si  Si1170  1  0.41666675  0.08333325  0.74558975  1
  Si  Si1171  1  0.41666675  0.08333325  0.99558975  1
  Si  Si1172  1  0.41666675  0.33333325  0.24558975  1
  Si  Si1173  1  0.41666675  0.33333325  0.49558975  1
  Si  Si1174  1  0.41666675  0.33333325  0.74558975  1
  Si  Si1175  1  0.41666675  0.33333325  0.99558975  1
  Si  Si1176  1  0.41666675  0.58333325  0.24558975  1
  Si  Si1177  1  0.41666675  0.58333325  0.49558975  1
  Si  Si1178  1  0.41666675  0.58333325  0.74558975  1
  Si  Si1179  1  0.41666675  0.58333325  0.99558975  1
  Si  Si1180  1  0.41666675  0.83333325  0.24558975  1
  Si  Si1181  1  0.41666675  0.83333325  0.49558975  1
  Si  Si1182  1  0.41666675  0.83333325  0.74558975  1
  Si  Si1183  1  0.41666675  0.83333325  0.99558975  1
  Si  Si1184  1  0.66666675  0.08333325  0.24558975  1
  Si  Si1185  1  0.66666675  0.08333325  0.49558975  1
  Si  Si1186  1  0.66666675  0.08333325  0.74558975  1
  Si  Si1187  1  0.66666675  0.08333325  0.99558975  1
  Si  Si1188  1  0.66666675  0.33333325  0.24558975  1
  Si  Si1189  1  0.66666675  0.33333325  0.49558975  1
  Si  Si1190  1  0.66666675  0.33333325  0.74558975  1
  Si  Si1191  1  0.66666675  0.33333325  0.99558975  1
  Si  Si1192  1  0.66666675  0.58333325  0.24558975  1
  Si  Si1193  1  0.66666675  0.58333325  0.49558975  1
  Si  Si1194  1  0.66666675  0.58333325  0.74558975  1
  Si  Si1195  1  0.66666675  0.58333325  0.99558975  1
  Si  Si1196  1  0.66666675  0.83333325  0.24558975  1
  Si  Si1197  1  0.66666675  0.83333325  0.49558975  1
  Si  Si1198  1  0.66666675  0.83333325  0.74558975  1
  Si  Si1199  1  0.66666675  0.83333325  0.99558975  1
  Si  Si1200  1  0.91666675  0.08333325  0.24558975  1
  Si  Si1201  1  0.91666675  0.08333325  0.49558975  1
  Si  Si1202  1  0.91666675  0.08333325  0.74558975  1
  Si  Si1203  1  0.91666675  0.08333325  0.99558975  1
  Si  Si1204  1  0.91666675  0.33333325  0.24558975  1
  Si  Si1205  1  0.91666675  0.33333325  0.49558975  1
  Si  Si1206  1  0.91666675  0.33333325  0.74558975  1
  Si  Si1207  1  0.91666675  0.33333325  0.99558975  1
  Si  Si1208  1  0.91666675  0.58333325  0.24558975  1
  Si  Si1209  1  0.91666675  0.58333325  0.49558975  1
  Si  Si1210  1  0.91666675  0.58333325  0.74558975  1
  Si  Si1211  1  0.91666675  0.58333325  0.99558975  1
  Si  Si1212  1  0.91666675  0.83333325  0.24558975  1
  Si  Si1213  1  0.91666675  0.83333325  0.49558975  1
  Si  Si1214  1  0.91666675  0.83333325  0.74558975  1
  Si  Si1215  1  0.91666675  0.83333325  0.99558975  1
  Si  Si1216  1  0.08333325  0.16666675  0.24558975  1
  Si  Si1217  1  0.08333325  0.16666675  0.49558975  1
  Si  Si1218  1  0.08333325  0.16666675  0.74558975  1
  Si  Si1219  1  0.08333325  0.16666675  0.99558975  1
  Si  Si1220  1  0.08333325  0.41666675  0.24558975  1
  Si  Si1221  1  0.08333325  0.41666675  0.49558975  1
  Si  Si1222  1  0.08333325  0.41666675  0.74558975  1
  Si  Si1223  1  0.08333325  0.41666675  0.99558975  1
  Si  Si1224  1  0.08333325  0.66666675  0.24558975  1
  Si  Si1225  1  0.08333325  0.66666675  0.49558975  1
  Si  Si1226  1  0.08333325  0.66666675  0.74558975  1
  Si  Si1227  1  0.08333325  0.66666675  0.99558975  1
  Si  Si1228  1  0.08333325  0.91666675  0.24558975  1
  Si  Si1229  1  0.08333325  0.91666675  0.49558975  1
  Si  Si1230  1  0.08333325  0.91666675  0.74558975  1
  Si  Si1231  1  0.08333325  0.91666675  0.99558975  1
  Si  Si1232  1  0.33333325  0.16666675  0.24558975  1
  Si  Si1233  1  0.33333325  0.16666675  0.49558975  1
  Si  Si1234  1  0.33333325  0.16666675  0.74558975  1
  Si  Si1235  1  0.33333325  0.16666675  0.99558975  1
  Si  Si1236  1  0.33333325  0.41666675  0.24558975  1
  Si  Si1237  1  0.33333325  0.41666675  0.49558975  1
  Si  Si1238  1  0.33333325  0.41666675  0.74558975  1
  Si  Si1239  1  0.33333325  0.41666675  0.99558975  1
  Si  Si1240  1  0.33333325  0.66666675  0.24558975  1
  Si  Si1241  1  0.33333325  0.66666675  0.49558975  1
  Si  Si1242  1  0.33333325  0.66666675  0.74558975  1
  Si  Si1243  1  0.33333325  0.66666675  0.99558975  1
  Si  Si1244  1  0.33333325  0.91666675  0.24558975  1
  Si  Si1245  1  0.33333325  0.91666675  0.49558975  1
  Si  Si1246  1  0.33333325  0.91666675  0.74558975  1
  Si  Si1247  1  0.33333325  0.91666675  0.99558975  1
  Si  Si1248  1  0.58333325  0.16666675  0.24558975  1
  Si  Si1249  1  0.58333325  0.16666675  0.49558975  1
  Si  Si1250  1  0.58333325  0.16666675  0.74558975  1
  Si  Si1251  1  0.58333325  0.16666675  0.99558975  1
  Si  Si1252  1  0.58333325  0.41666675  0.24558975  1
  Si  Si1253  1  0.58333325  0.41666675  0.49558975  1
  Si  Si1254  1  0.58333325  0.41666675  0.74558975  1
  Si  Si1255  1  0.58333325  0.41666675  0.99558975  1
  Si  Si1256  1  0.58333325  0.66666675  0.24558975  1
  Si  Si1257  1  0.58333325  0.66666675  0.49558975  1
  Si  Si1258  1  0.58333325  0.66666675  0.74558975  1
  Si  Si1259  1  0.58333325  0.66666675  0.99558975  1
  Si  Si1260  1  0.58333325  0.91666675  0.24558975  1
  Si  Si1261  1  0.58333325  0.91666675  0.49558975  1
  Si  Si1262  1  0.58333325  0.91666675  0.74558975  1
  Si  Si1263  1  0.58333325  0.91666675  0.99558975  1
  Si  Si1264  1  0.83333325  0.16666675  0.24558975  1
  Si  Si1265  1  0.83333325  0.16666675  0.49558975  1
  Si  Si1266  1  0.83333325  0.16666675  0.74558975  1
  Si  Si1267  1  0.83333325  0.16666675  0.99558975  1
  Si  Si1268  1  0.83333325  0.41666675  0.24558975  1
  Si  Si1269  1  0.83333325  0.41666675  0.49558975  1
  Si  Si1270  1  0.83333325  0.41666675  0.74558975  1
  Si  Si1271  1  0.83333325  0.41666675  0.99558975  1
  Si  Si1272  1  0.83333325  0.66666675  0.24558975  1
  Si  Si1273  1  0.83333325  0.66666675  0.49558975  1
  Si  Si1274  1  0.83333325  0.66666675  0.74558975  1
  Si  Si1275  1  0.83333325  0.66666675  0.99558975  1
  Si  Si1276  1  0.83333325  0.91666675  0.24558975  1
  Si  Si1277  1  0.83333325  0.91666675  0.49558975  1
  Si  Si1278  1  0.83333325  0.91666675  0.74558975  1
  Si  Si1279  1  0.83333325  0.91666675  0.99558975  1
  Si  Si1280  1  0.00000000  0.00000000  0.07792950  1
  Si  Si1281  1  0.00000000  0.00000000  0.32792950  1
  Si  Si1282  1  0.00000000  0.00000000  0.57792950  1
  Si  Si1283  1  0.00000000  0.00000000  0.82792950  1
  Si  Si1284  1  1.00000000  0.25000000  0.07792950  1
  Si  Si1285  1  1.00000000  0.25000000  0.32792950  1
  Si  Si1286  1  1.00000000  0.25000000  0.57792950  1
  Si  Si1287  1  1.00000000  0.25000000  0.82792950  1
  Si  Si1288  1  1.00000000  0.50000000  0.07792950  1
  Si  Si1289  1  1.00000000  0.50000000  0.32792950  1
  Si  Si1290  1  1.00000000  0.50000000  0.57792950  1
  Si  Si1291  1  1.00000000  0.50000000  0.82792950  1
  Si  Si1292  1  1.00000000  0.75000000  0.07792950  1
  Si  Si1293  1  1.00000000  0.75000000  0.32792950  1
  Si  Si1294  1  1.00000000  0.75000000  0.57792950  1
  Si  Si1295  1  1.00000000  0.75000000  0.82792950  1
  Si  Si1296  1  0.25000000  1.00000000  0.07792950  1
  Si  Si1297  1  0.25000000  1.00000000  0.32792950  1
  Si  Si1298  1  0.25000000  1.00000000  0.57792950  1
  Si  Si1299  1  0.25000000  1.00000000  0.82792950  1
  Si  Si1300  1  0.25000000  0.25000000  0.07792950  1
  Si  Si1301  1  0.25000000  0.25000000  0.32792950  1
  Si  Si1302  1  0.25000000  0.25000000  0.57792950  1
  Si  Si1303  1  0.25000000  0.25000000  0.82792950  1
  Si  Si1304  1  0.25000000  0.50000000  0.07792950  1
  Si  Si1305  1  0.25000000  0.50000000  0.32792950  1
  Si  Si1306  1  0.25000000  0.50000000  0.57792950  1
  Si  Si1307  1  0.25000000  0.50000000  0.82792950  1
  Si  Si1308  1  0.25000000  0.75000000  0.07792950  1
  Si  Si1309  1  0.25000000  0.75000000  0.32792950  1
  Si  Si1310  1  0.25000000  0.75000000  0.57792950  1
  Si  Si1311  1  0.25000000  0.75000000  0.82792950  1
  Si  Si1312  1  0.50000000  1.00000000  0.07792950  1
  Si  Si1313  1  0.50000000  1.00000000  0.32792950  1
  Si  Si1314  1  0.50000000  1.00000000  0.57792950  1
  Si  Si1315  1  0.50000000  1.00000000  0.82792950  1
  Si  Si1316  1  0.50000000  0.25000000  0.07792950  1
  Si  Si1317  1  0.50000000  0.25000000  0.32792950  1
  Si  Si1318  1  0.50000000  0.25000000  0.57792950  1
  Si  Si1319  1  0.50000000  0.25000000  0.82792950  1
  Si  Si1320  1  0.50000000  0.50000000  0.07792950  1
  Si  Si1321  1  0.50000000  0.50000000  0.32792950  1
  Si  Si1322  1  0.50000000  0.50000000  0.57792950  1
  Si  Si1323  1  0.50000000  0.50000000  0.82792950  1
  Si  Si1324  1  0.50000000  0.75000000  0.07792950  1
  Si  Si1325  1  0.50000000  0.75000000  0.32792950  1
  Si  Si1326  1  0.50000000  0.75000000  0.57792950  1
  Si  Si1327  1  0.50000000  0.75000000  0.82792950  1
  Si  Si1328  1  0.75000000  1.00000000  0.07792950  1
  Si  Si1329  1  0.75000000  1.00000000  0.32792950  1
  Si  Si1330  1  0.75000000  1.00000000  0.57792950  1
  Si  Si1331  1  0.75000000  1.00000000  0.82792950  1
  Si  Si1332  1  0.75000000  0.25000000  0.07792950  1
  Si  Si1333  1  0.75000000  0.25000000  0.32792950  1
  Si  Si1334  1  0.75000000  0.25000000  0.57792950  1
  Si  Si1335  1  0.75000000  0.25000000  0.82792950  1
  Si  Si1336  1  0.75000000  0.50000000  0.07792950  1
  Si  Si1337  1  0.75000000  0.50000000  0.32792950  1
  Si  Si1338  1  0.75000000  0.50000000  0.57792950  1
  Si  Si1339  1  0.75000000  0.50000000  0.82792950  1
  Si  Si1340  1  0.75000000  0.75000000  0.07792950  1
  Si  Si1341  1  0.75000000  0.75000000  0.32792950  1
  Si  Si1342  1  0.75000000  0.75000000  0.57792950  1
  Si  Si1343  1  0.75000000  0.75000000  0.82792950  1
  Si  Si1344  1  0.16666675  0.08333325  0.12058975  1
  Si  Si1345  1  0.16666675  0.08333325  0.37058975  1
  Si  Si1346  1  0.16666675  0.08333325  0.62058975  1
  Si  Si1347  1  0.16666675  0.08333325  0.87058975  1
  Si  Si1348  1  0.16666675  0.33333325  0.12058975  1
  Si  Si1349  1  0.16666675  0.33333325  0.37058975  1
  Si  Si1350  1  0.16666675  0.33333325  0.62058975  1
  Si  Si1351  1  0.16666675  0.33333325  0.87058975  1
  Si  Si1352  1  0.16666675  0.58333325  0.12058975  1
  Si  Si1353  1  0.16666675  0.58333325  0.37058975  1
  Si  Si1354  1  0.16666675  0.58333325  0.62058975  1
  Si  Si1355  1  0.16666675  0.58333325  0.87058975  1
  Si  Si1356  1  0.16666675  0.83333325  0.12058975  1
  Si  Si1357  1  0.16666675  0.83333325  0.37058975  1
  Si  Si1358  1  0.16666675  0.83333325  0.62058975  1
  Si  Si1359  1  0.16666675  0.83333325  0.87058975  1
  Si  Si1360  1  0.41666675  0.08333325  0.12058975  1
  Si  Si1361  1  0.41666675  0.08333325  0.37058975  1
  Si  Si1362  1  0.41666675  0.08333325  0.62058975  1
  Si  Si1363  1  0.41666675  0.08333325  0.87058975  1
  Si  Si1364  1  0.41666675  0.33333325  0.12058975  1
  Si  Si1365  1  0.41666675  0.33333325  0.37058975  1
  Si  Si1366  1  0.41666675  0.33333325  0.62058975  1
  Si  Si1367  1  0.41666675  0.33333325  0.87058975  1
  Si  Si1368  1  0.41666675  0.58333325  0.12058975  1
  Si  Si1369  1  0.41666675  0.58333325  0.37058975  1
  Si  Si1370  1  0.41666675  0.58333325  0.62058975  1
  Si  Si1371  1  0.41666675  0.58333325  0.87058975  1
  Si  Si1372  1  0.41666675  0.83333325  0.12058975  1
  Si  Si1373  1  0.41666675  0.83333325  0.37058975  1
  Si  Si1374  1  0.41666675  0.83333325  0.62058975  1
  Si  Si1375  1  0.41666675  0.83333325  0.87058975  1
  Si  Si1376  1  0.66666675  0.08333325  0.12058975  1
  Si  Si1377  1  0.66666675  0.08333325  0.37058975  1
  Si  Si1378  1  0.66666675  0.08333325  0.62058975  1
  Si  Si1379  1  0.66666675  0.08333325  0.87058975  1
  Si  Si1380  1  0.66666675  0.33333325  0.12058975  1
  Si  Si1381  1  0.66666675  0.33333325  0.37058975  1
  Si  Si1382  1  0.66666675  0.33333325  0.62058975  1
  Si  Si1383  1  0.66666675  0.33333325  0.87058975  1
  Si  Si1384  1  0.66666675  0.58333325  0.12058975  1
  Si  Si1385  1  0.66666675  0.58333325  0.37058975  1
  Si  Si1386  1  0.66666675  0.58333325  0.62058975  1
  Si  Si1387  1  0.66666675  0.58333325  0.87058975  1
  Si  Si1388  1  0.66666675  0.83333325  0.12058975  1
  Si  Si1389  1  0.66666675  0.83333325  0.37058975  1
  Si  Si1390  1  0.66666675  0.83333325  0.62058975  1
  Si  Si1391  1  0.66666675  0.83333325  0.87058975  1
  Si  Si1392  1  0.91666675  0.08333325  0.12058975  1
  Si  Si1393  1  0.91666675  0.08333325  0.37058975  1
  Si  Si1394  1  0.91666675  0.08333325  0.62058975  1
  Si  Si1395  1  0.91666675  0.08333325  0.87058975  1
  Si  Si1396  1  0.91666675  0.33333325  0.12058975  1
  Si  Si1397  1  0.91666675  0.33333325  0.37058975  1
  Si  Si1398  1  0.91666675  0.33333325  0.62058975  1
  Si  Si1399  1  0.91666675  0.33333325  0.87058975  1
  Si  Si1400  1  0.91666675  0.58333325  0.12058975  1
  Si  Si1401  1  0.91666675  0.58333325  0.37058975  1
  Si  Si1402  1  0.91666675  0.58333325  0.62058975  1
  Si  Si1403  1  0.91666675  0.58333325  0.87058975  1
  Si  Si1404  1  0.91666675  0.83333325  0.12058975  1
  Si  Si1405  1  0.91666675  0.83333325  0.37058975  1
  Si  Si1406  1  0.91666675  0.83333325  0.62058975  1
  Si  Si1407  1  0.91666675  0.83333325  0.87058975  1
  Si  Si1408  1  0.00000000  0.00000000  0.20292950  1
  Si  Si1409  1  0.00000000  0.00000000  0.45292950  1
  Si  Si1410  1  0.00000000  0.00000000  0.70292950  1
  Si  Si1411  1  0.00000000  0.00000000  0.95292950  1
  Si  Si1412  1  1.00000000  0.25000000  0.20292950  1
  Si  Si1413  1  1.00000000  0.25000000  0.45292950  1
  Si  Si1414  1  1.00000000  0.25000000  0.70292950  1
  Si  Si1415  1  1.00000000  0.25000000  0.95292950  1
  Si  Si1416  1  1.00000000  0.50000000  0.20292950  1
  Si  Si1417  1  1.00000000  0.50000000  0.45292950  1
  Si  Si1418  1  1.00000000  0.50000000  0.70292950  1
  Si  Si1419  1  1.00000000  0.50000000  0.95292950  1
  Si  Si1420  1  1.00000000  0.75000000  0.20292950  1
  Si  Si1421  1  1.00000000  0.75000000  0.45292950  1
  Si  Si1422  1  1.00000000  0.75000000  0.70292950  1
  Si  Si1423  1  1.00000000  0.75000000  0.95292950  1
  Si  Si1424  1  0.25000000  1.00000000  0.20292950  1
  Si  Si1425  1  0.25000000  1.00000000  0.45292950  1
  Si  Si1426  1  0.25000000  1.00000000  0.70292950  1
  Si  Si1427  1  0.25000000  1.00000000  0.95292950  1
  Si  Si1428  1  0.25000000  0.25000000  0.20292950  1
  Si  Si1429  1  0.25000000  0.25000000  0.45292950  1
  Si  Si1430  1  0.25000000  0.25000000  0.70292950  1
  Si  Si1431  1  0.25000000  0.25000000  0.95292950  1
  Si  Si1432  1  0.25000000  0.50000000  0.20292950  1
  Si  Si1433  1  0.25000000  0.50000000  0.45292950  1
  Si  Si1434  1  0.25000000  0.50000000  0.70292950  1
  Si  Si1435  1  0.25000000  0.50000000  0.95292950  1
  Si  Si1436  1  0.25000000  0.75000000  0.20292950  1
  Si  Si1437  1  0.25000000  0.75000000  0.45292950  1
  Si  Si1438  1  0.25000000  0.75000000  0.70292950  1
  Si  Si1439  1  0.25000000  0.75000000  0.95292950  1
  Si  Si1440  1  0.50000000  1.00000000  0.20292950  1
  Si  Si1441  1  0.50000000  1.00000000  0.45292950  1
  Si  Si1442  1  0.50000000  1.00000000  0.70292950  1
  Si  Si1443  1  0.50000000  1.00000000  0.95292950  1
  Si  Si1444  1  0.50000000  0.25000000  0.20292950  1
  Si  Si1445  1  0.50000000  0.25000000  0.45292950  1
  Si  Si1446  1  0.50000000  0.25000000  0.70292950  1
  Si  Si1447  1  0.50000000  0.25000000  0.95292950  1
  Si  Si1448  1  0.50000000  0.50000000  0.20292950  1
  Si  Si1449  1  0.50000000  0.50000000  0.45292950  1
  Si  Si1450  1  0.50000000  0.50000000  0.70292950  1
  Si  Si1451  1  0.50000000  0.50000000  0.95292950  1
  Si  Si1452  1  0.50000000  0.75000000  0.20292950  1
  Si  Si1453  1  0.50000000  0.75000000  0.45292950  1
  Si  Si1454  1  0.50000000  0.75000000  0.70292950  1
  Si  Si1455  1  0.50000000  0.75000000  0.95292950  1
  Si  Si1456  1  0.75000000  1.00000000  0.20292950  1
  Si  Si1457  1  0.75000000  1.00000000  0.45292950  1
  Si  Si1458  1  0.75000000  1.00000000  0.70292950  1
  Si  Si1459  1  0.75000000  1.00000000  0.95292950  1
  Si  Si1460  1  0.75000000  0.25000000  0.20292950  1
  Si  Si1461  1  0.75000000  0.25000000  0.45292950  1
  Si  Si1462  1  0.75000000  0.25000000  0.70292950  1
  Si  Si1463  1  0.75000000  0.25000000  0.95292950  1
  Si  Si1464  1  0.75000000  0.50000000  0.20292950  1
  Si  Si1465  1  0.75000000  0.50000000  0.45292950  1
  Si  Si1466  1  0.75000000  0.50000000  0.70292950  1
  Si  Si1467  1  0.75000000  0.50000000  0.95292950  1
  Si  Si1468  1  0.75000000  0.75000000  0.20292950  1
  Si  Si1469  1  0.75000000  0.75000000  0.45292950  1
  Si  Si1470  1  0.75000000  0.75000000  0.70292950  1
  Si  Si1471  1  0.75000000  0.75000000  0.95292950  1
  Si  Si1472  1  0.08333325  0.16666675  0.12058975  1
  Si  Si1473  1  0.08333325  0.16666675  0.37058975  1
  Si  Si1474  1  0.08333325  0.16666675  0.62058975  1
  Si  Si1475  1  0.08333325  0.16666675  0.87058975  1
  Si  Si1476  1  0.08333325  0.41666675  0.12058975  1
  Si  Si1477  1  0.08333325  0.41666675  0.37058975  1
  Si  Si1478  1  0.08333325  0.41666675  0.62058975  1
  Si  Si1479  1  0.08333325  0.41666675  0.87058975  1
  Si  Si1480  1  0.08333325  0.66666675  0.12058975  1
  Si  Si1481  1  0.08333325  0.66666675  0.37058975  1
  Si  Si1482  1  0.08333325  0.66666675  0.62058975  1
  Si  Si1483  1  0.08333325  0.66666675  0.87058975  1
  Si  Si1484  1  0.08333325  0.91666675  0.12058975  1
  Si  Si1485  1  0.08333325  0.91666675  0.37058975  1
  Si  Si1486  1  0.08333325  0.91666675  0.62058975  1
  Si  Si1487  1  0.08333325  0.91666675  0.87058975  1
  Si  Si1488  1  0.33333325  0.16666675  0.12058975  1
  Si  Si1489  1  0.33333325  0.16666675  0.37058975  1
  Si  Si1490  1  0.33333325  0.16666675  0.62058975  1
  Si  Si1491  1  0.33333325  0.16666675  0.87058975  1
  Si  Si1492  1  0.33333325  0.41666675  0.12058975  1
  Si  Si1493  1  0.33333325  0.41666675  0.37058975  1
  Si  Si1494  1  0.33333325  0.41666675  0.62058975  1
  Si  Si1495  1  0.33333325  0.41666675  0.87058975  1
  Si  Si1496  1  0.33333325  0.66666675  0.12058975  1
  Si  Si1497  1  0.33333325  0.66666675  0.37058975  1
  Si  Si1498  1  0.33333325  0.66666675  0.62058975  1
  Si  Si1499  1  0.33333325  0.66666675  0.87058975  1
  Si  Si1500  1  0.33333325  0.91666675  0.12058975  1
  Si  Si1501  1  0.33333325  0.91666675  0.37058975  1
  Si  Si1502  1  0.33333325  0.91666675  0.62058975  1
  Si  Si1503  1  0.33333325  0.91666675  0.87058975  1
  Si  Si1504  1  0.58333325  0.16666675  0.12058975  1
  Si  Si1505  1  0.58333325  0.16666675  0.37058975  1
  Si  Si1506  1  0.58333325  0.16666675  0.62058975  1
  Si  Si1507  1  0.58333325  0.16666675  0.87058975  1
  Si  Si1508  1  0.58333325  0.41666675  0.12058975  1
  Si  Si1509  1  0.58333325  0.41666675  0.37058975  1
  Si  Si1510  1  0.58333325  0.41666675  0.62058975  1
  Si  Si1511  1  0.58333325  0.41666675  0.87058975  1
  Si  Si1512  1  0.58333325  0.66666675  0.12058975  1
  Si  Si1513  1  0.58333325  0.66666675  0.37058975  1
  Si  Si1514  1  0.58333325  0.66666675  0.62058975  1
  Si  Si1515  1  0.58333325  0.66666675  0.87058975  1
  Si  Si1516  1  0.58333325  0.91666675  0.12058975  1
  Si  Si1517  1  0.58333325  0.91666675  0.37058975  1
  Si  Si1518  1  0.58333325  0.91666675  0.62058975  1
  Si  Si1519  1  0.58333325  0.91666675  0.87058975  1
  Si  Si1520  1  0.83333325  0.16666675  0.12058975  1
  Si  Si1521  1  0.83333325  0.16666675  0.37058975  1
  Si  Si1522  1  0.83333325  0.16666675  0.62058975  1
  Si  Si1523  1  0.83333325  0.16666675  0.87058975  1
  Si  Si1524  1  0.83333325  0.41666675  0.12058975  1
  Si  Si1525  1  0.83333325  0.41666675  0.37058975  1
  Si  Si1526  1  0.83333325  0.41666675  0.62058975  1
  Si  Si1527  1  0.83333325  0.41666675  0.87058975  1
  Si  Si1528  1  0.83333325  0.66666675  0.12058975  1
  Si  Si1529  1  0.83333325  0.66666675  0.37058975  1
  Si  Si1530  1  0.83333325  0.66666675  0.62058975  1
  Si  Si1531  1  0.83333325  0.66666675  0.87058975  1
  Si  Si1532  1  0.83333325  0.91666675  0.12058975  1
  Si  Si1533  1  0.83333325  0.91666675  0.37058975  1
  Si  Si1534  1  0.83333325  0.91666675  0.62058975  1
  Si  Si1535  1  0.83333325  0.91666675  0.87058975  1
  O  O1536  1  0.04819600  1.00000000  0.06627350  1
  O  O1537  1  0.04819600  1.00000000  0.31627350  1
  O  O1538  1  0.04819600  1.00000000  0.56627350  1
  O  O1539  1  0.04819600  1.00000000  0.81627350  1
  O  O1540  1  0.04819600  0.25000000  0.06627350  1
  O  O1541  1  0.04819600  0.25000000  0.31627350  1
  O  O1542  1  0.04819600  0.25000000  0.56627350  1
  O  O1543  1  0.04819600  0.25000000  0.81627350  1
  O  O1544  1  0.04819600  0.50000000  0.06627350  1
  O  O1545  1  0.04819600  0.50000000  0.31627350  1
  O  O1546  1  0.04819600  0.50000000  0.56627350  1
  O  O1547  1  0.04819600  0.50000000  0.81627350  1
  O  O1548  1  0.04819600  0.75000000  0.06627350  1
  O  O1549  1  0.04819600  0.75000000  0.31627350  1
  O  O1550  1  0.04819600  0.75000000  0.56627350  1
  O  O1551  1  0.04819600  0.75000000  0.81627350  1
  O  O1552  1  0.29819600  1.00000000  0.06627350  1
  O  O1553  1  0.29819600  1.00000000  0.31627350  1
  O  O1554  1  0.29819600  1.00000000  0.56627350  1
  O  O1555  1  0.29819600  1.00000000  0.81627350  1
  O  O1556  1  0.29819600  0.25000000  0.06627350  1
  O  O1557  1  0.29819600  0.25000000  0.31627350  1
  O  O1558  1  0.29819600  0.25000000  0.56627350  1
  O  O1559  1  0.29819600  0.25000000  0.81627350  1
  O  O1560  1  0.29819600  0.50000000  0.06627350  1
  O  O1561  1  0.29819600  0.50000000  0.31627350  1
  O  O1562  1  0.29819600  0.50000000  0.56627350  1
  O  O1563  1  0.29819600  0.50000000  0.81627350  1
  O  O1564  1  0.29819600  0.75000000  0.06627350  1
  O  O1565  1  0.29819600  0.75000000  0.31627350  1
  O  O1566  1  0.29819600  0.75000000  0.56627350  1
  O  O1567  1  0.29819600  0.75000000  0.81627350  1
  O  O1568  1  0.54819600  1.00000000  0.06627350  1
  O  O1569  1  0.54819600  1.00000000  0.31627350  1
  O  O1570  1  0.54819600  1.00000000  0.56627350  1
  O  O1571  1  0.54819600  1.00000000  0.81627350  1
  O  O1572  1  0.54819600  0.25000000  0.06627350  1
  O  O1573  1  0.54819600  0.25000000  0.31627350  1
  O  O1574  1  0.54819600  0.25000000  0.56627350  1
  O  O1575  1  0.54819600  0.25000000  0.81627350  1
  O  O1576  1  0.54819600  0.50000000  0.06627350  1
  O  O1577  1  0.54819600  0.50000000  0.31627350  1
  O  O1578  1  0.54819600  0.50000000  0.56627350  1
  O  O1579  1  0.54819600  0.50000000  0.81627350  1
  O  O1580  1  0.54819600  0.75000000  0.06627350  1
  O  O1581  1  0.54819600  0.75000000  0.31627350  1
  O  O1582  1  0.54819600  0.75000000  0.56627350  1
  O  O1583  1  0.54819600  0.75000000  0.81627350  1
  O  O1584  1  0.79819600  1.00000000  0.06627350  1
  O  O1585  1  0.79819600  1.00000000  0.31627350  1
  O  O1586  1  0.79819600  1.00000000  0.56627350  1
  O  O1587  1  0.79819600  1.00000000  0.81627350  1
  O  O1588  1  0.79819600  0.25000000  0.06627350  1
  O  O1589  1  0.79819600  0.25000000  0.31627350  1
  O  O1590  1  0.79819600  0.25000000  0.56627350  1
  O  O1591  1  0.79819600  0.25000000  0.81627350  1
  O  O1592  1  0.79819600  0.50000000  0.06627350  1
  O  O1593  1  0.79819600  0.50000000  0.31627350  1
  O  O1594  1  0.79819600  0.50000000  0.56627350  1
  O  O1595  1  0.79819600  0.50000000  0.81627350  1
  O  O1596  1  0.79819600  0.75000000  0.06627350  1
  O  O1597  1  0.79819600  0.75000000  0.31627350  1
  O  O1598  1  0.79819600  0.75000000  0.56627350  1
  O  O1599  1  0.79819600  0.75000000  0.81627350  1
  O  O1600  1  0.08333325  0.16666675  0.08239000  1
  O  O1601  1  0.08333325  0.16666675  0.33239000  1
  O  O1602  1  0.08333325  0.16666675  0.58239000  1
  O  O1603  1  0.08333325  0.16666675  0.83239000  1
  O  O1604  1  0.08333325  0.41666675  0.08239000  1
  O  O1605  1  0.08333325  0.41666675  0.33239000  1
  O  O1606  1  0.08333325  0.41666675  0.58239000  1
  O  O1607  1  0.08333325  0.41666675  0.83239000  1
  O  O1608  1  0.08333325  0.66666675  0.08239000  1
  O  O1609  1  0.08333325  0.66666675  0.33239000  1
  O  O1610  1  0.08333325  0.66666675  0.58239000  1
  O  O1611  1  0.08333325  0.66666675  0.83239000  1
  O  O1612  1  0.08333325  0.91666675  0.08239000  1
  O  O1613  1  0.08333325  0.91666675  0.33239000  1
  O  O1614  1  0.08333325  0.91666675  0.58239000  1
  O  O1615  1  0.08333325  0.91666675  0.83239000  1
  O  O1616  1  0.33333325  0.16666675  0.08239000  1
  O  O1617  1  0.33333325  0.16666675  0.33239000  1
  O  O1618  1  0.33333325  0.16666675  0.58239000  1
  O  O1619  1  0.33333325  0.16666675  0.83239000  1
  O  O1620  1  0.33333325  0.41666675  0.08239000  1
  O  O1621  1  0.33333325  0.41666675  0.33239000  1
  O  O1622  1  0.33333325  0.41666675  0.58239000  1
  O  O1623  1  0.33333325  0.41666675  0.83239000  1
  O  O1624  1  0.33333325  0.66666675  0.08239000  1
  O  O1625  1  0.33333325  0.66666675  0.33239000  1
  O  O1626  1  0.33333325  0.66666675  0.58239000  1
  O  O1627  1  0.33333325  0.66666675  0.83239000  1
  O  O1628  1  0.33333325  0.91666675  0.08239000  1
  O  O1629  1  0.33333325  0.91666675  0.33239000  1
  O  O1630  1  0.33333325  0.91666675  0.58239000  1
  O  O1631  1  0.33333325  0.91666675  0.83239000  1
  O  O1632  1  0.58333325  0.16666675  0.08239000  1
  O  O1633  1  0.58333325  0.16666675  0.33239000  1
  O  O1634  1  0.58333325  0.16666675  0.58239000  1
  O  O1635  1  0.58333325  0.16666675  0.83239000  1
  O  O1636  1  0.58333325  0.41666675  0.08239000  1
  O  O1637  1  0.58333325  0.41666675  0.33239000  1
  O  O1638  1  0.58333325  0.41666675  0.58239000  1
  O  O1639  1  0.58333325  0.41666675  0.83239000  1
  O  O1640  1  0.58333325  0.66666675  0.08239000  1
  O  O1641  1  0.58333325  0.66666675  0.33239000  1
  O  O1642  1  0.58333325  0.66666675  0.58239000  1
  O  O1643  1  0.58333325  0.66666675  0.83239000  1
  O  O1644  1  0.58333325  0.91666675  0.08239000  1
  O  O1645  1  0.58333325  0.91666675  0.33239000  1
  O  O1646  1  0.58333325  0.91666675  0.58239000  1
  O  O1647  1  0.58333325  0.91666675  0.83239000  1
  O  O1648  1  0.83333325  0.16666675  0.08239000  1
  O  O1649  1  0.83333325  0.16666675  0.33239000  1
  O  O1650  1  0.83333325  0.16666675  0.58239000  1
  O  O1651  1  0.83333325  0.16666675  0.83239000  1
  O  O1652  1  0.83333325  0.41666675  0.08239000  1
  O  O1653  1  0.83333325  0.41666675  0.33239000  1
  O  O1654  1  0.83333325  0.41666675  0.58239000  1
  O  O1655  1  0.83333325  0.41666675  0.83239000  1
  O  O1656  1  0.83333325  0.66666675  0.08239000  1
  O  O1657  1  0.83333325  0.66666675  0.33239000  1
  O  O1658  1  0.83333325  0.66666675  0.58239000  1
  O  O1659  1  0.83333325  0.66666675  0.83239000  1
  O  O1660  1  0.83333325  0.91666675  0.08239000  1
  O  O1661  1  0.83333325  0.91666675  0.33239000  1
  O  O1662  1  0.83333325  0.91666675  0.58239000  1
  O  O1663  1  0.83333325  0.91666675  0.83239000  1
  O  O1664  1  0.04819600  0.04819600  0.19127350  1
  O  O1665  1  0.04819600  0.04819600  0.44127350  1
  O  O1666  1  0.04819600  0.04819600  0.69127350  1
  O  O1667  1  0.04819600  0.04819600  0.94127350  1
  O  O1668  1  0.04819600  0.29819600  0.19127350  1
  O  O1669  1  0.04819600  0.29819600  0.44127350  1
  O  O1670  1  0.04819600  0.29819600  0.69127350  1
  O  O1671  1  0.04819600  0.29819600  0.94127350  1
  O  O1672  1  0.04819600  0.54819600  0.19127350  1
  O  O1673  1  0.04819600  0.54819600  0.44127350  1
  O  O1674  1  0.04819600  0.54819600  0.69127350  1
  O  O1675  1  0.04819600  0.54819600  0.94127350  1
  O  O1676  1  0.04819600  0.79819600  0.19127350  1
  O  O1677  1  0.04819600  0.79819600  0.44127350  1
  O  O1678  1  0.04819600  0.79819600  0.69127350  1
  O  O1679  1  0.04819600  0.79819600  0.94127350  1
  O  O1680  1  0.29819600  0.04819600  0.19127350  1
  O  O1681  1  0.29819600  0.04819600  0.44127350  1
  O  O1682  1  0.29819600  0.04819600  0.69127350  1
  O  O1683  1  0.29819600  0.04819600  0.94127350  1
  O  O1684  1  0.29819600  0.29819600  0.19127350  1
  O  O1685  1  0.29819600  0.29819600  0.44127350  1
  O  O1686  1  0.29819600  0.29819600  0.69127350  1
  O  O1687  1  0.29819600  0.29819600  0.94127350  1
  O  O1688  1  0.29819600  0.54819600  0.19127350  1
  O  O1689  1  0.29819600  0.54819600  0.44127350  1
  O  O1690  1  0.29819600  0.54819600  0.69127350  1
  O  O1691  1  0.29819600  0.54819600  0.94127350  1
  O  O1692  1  0.29819600  0.79819600  0.19127350  1
  O  O1693  1  0.29819600  0.79819600  0.44127350  1
  O  O1694  1  0.29819600  0.79819600  0.69127350  1
  O  O1695  1  0.29819600  0.79819600  0.94127350  1
  O  O1696  1  0.54819600  0.04819600  0.19127350  1
  O  O1697  1  0.54819600  0.04819600  0.44127350  1
  O  O1698  1  0.54819600  0.04819600  0.69127350  1
  O  O1699  1  0.54819600  0.04819600  0.94127350  1
  O  O1700  1  0.54819600  0.29819600  0.19127350  1
  O  O1701  1  0.54819600  0.29819600  0.44127350  1
  O  O1702  1  0.54819600  0.29819600  0.69127350  1
  O  O1703  1  0.54819600  0.29819600  0.94127350  1
  O  O1704  1  0.54819600  0.54819600  0.19127350  1
  O  O1705  1  0.54819600  0.54819600  0.44127350  1
  O  O1706  1  0.54819600  0.54819600  0.69127350  1
  O  O1707  1  0.54819600  0.54819600  0.94127350  1
  O  O1708  1  0.54819600  0.79819600  0.19127350  1
  O  O1709  1  0.54819600  0.79819600  0.44127350  1
  O  O1710  1  0.54819600  0.79819600  0.69127350  1
  O  O1711  1  0.54819600  0.79819600  0.94127350  1
  O  O1712  1  0.79819600  0.04819600  0.19127350  1
  O  O1713  1  0.79819600  0.04819600  0.44127350  1
  O  O1714  1  0.79819600  0.04819600  0.69127350  1
  O  O1715  1  0.79819600  0.04819600  0.94127350  1
  O  O1716  1  0.79819600  0.29819600  0.19127350  1
  O  O1717  1  0.79819600  0.29819600  0.44127350  1
  O  O1718  1  0.79819600  0.29819600  0.69127350  1
  O  O1719  1  0.79819600  0.29819600  0.94127350  1
  O  O1720  1  0.79819600  0.54819600  0.19127350  1
  O  O1721  1  0.79819600  0.54819600  0.44127350  1
  O  O1722  1  0.79819600  0.54819600  0.69127350  1
  O  O1723  1  0.79819600  0.54819600  0.94127350  1
  O  O1724  1  0.79819600  0.79819600  0.19127350  1
  O  O1725  1  0.79819600  0.79819600  0.44127350  1
  O  O1726  1  0.79819600  0.79819600  0.69127350  1
  O  O1727  1  0.79819600  0.79819600  0.94127350  1
  O  O1728  1  0.20180400  1.00000000  0.19127350  1
  O  O1729  1  0.20180400  1.00000000  0.44127350  1
  O  O1730  1  0.20180400  1.00000000  0.69127350  1
  O  O1731  1  0.20180400  1.00000000  0.94127350  1
  O  O1732  1  0.20180400  0.25000000  0.19127350  1
  O  O1733  1  0.20180400  0.25000000  0.44127350  1
  O  O1734  1  0.20180400  0.25000000  0.69127350  1
  O  O1735  1  0.20180400  0.25000000  0.94127350  1
  O  O1736  1  0.20180400  0.50000000  0.19127350  1
  O  O1737  1  0.20180400  0.50000000  0.44127350  1
  O  O1738  1  0.20180400  0.50000000  0.69127350  1
  O  O1739  1  0.20180400  0.50000000  0.94127350  1
  O  O1740  1  0.20180400  0.75000000  0.19127350  1
  O  O1741  1  0.20180400  0.75000000  0.44127350  1
  O  O1742  1  0.20180400  0.75000000  0.69127350  1
  O  O1743  1  0.20180400  0.75000000  0.94127350  1
  O  O1744  1  0.45180400  1.00000000  0.19127350  1
  O  O1745  1  0.45180400  1.00000000  0.44127350  1
  O  O1746  1  0.45180400  1.00000000  0.69127350  1
  O  O1747  1  0.45180400  1.00000000  0.94127350  1
  O  O1748  1  0.45180400  0.25000000  0.19127350  1
  O  O1749  1  0.45180400  0.25000000  0.44127350  1
  O  O1750  1  0.45180400  0.25000000  0.69127350  1
  O  O1751  1  0.45180400  0.25000000  0.94127350  1
  O  O1752  1  0.45180400  0.50000000  0.19127350  1
  O  O1753  1  0.45180400  0.50000000  0.44127350  1
  O  O1754  1  0.45180400  0.50000000  0.69127350  1
  O  O1755  1  0.45180400  0.50000000  0.94127350  1
  O  O1756  1  0.45180400  0.75000000  0.19127350  1
  O  O1757  1  0.45180400  0.75000000  0.44127350  1
  O  O1758  1  0.45180400  0.75000000  0.69127350  1
  O  O1759  1  0.45180400  0.75000000  0.94127350  1
  O  O1760  1  0.70180400  1.00000000  0.19127350  1
  O  O1761  1  0.70180400  1.00000000  0.44127350  1
  O  O1762  1  0.70180400  1.00000000  0.69127350  1
  O  O1763  1  0.70180400  1.00000000  0.94127350  1
  O  O1764  1  0.70180400  0.25000000  0.19127350  1
  O  O1765  1  0.70180400  0.25000000  0.44127350  1
  O  O1766  1  0.70180400  0.25000000  0.69127350  1
  O  O1767  1  0.70180400  0.25000000  0.94127350  1
  O  O1768  1  0.70180400  0.50000000  0.19127350  1
  O  O1769  1  0.70180400  0.50000000  0.44127350  1
  O  O1770  1  0.70180400  0.50000000  0.69127350  1
  O  O1771  1  0.70180400  0.50000000  0.94127350  1
  O  O1772  1  0.70180400  0.75000000  0.19127350  1
  O  O1773  1  0.70180400  0.75000000  0.44127350  1
  O  O1774  1  0.70180400  0.75000000  0.69127350  1
  O  O1775  1  0.70180400  0.75000000  0.94127350  1
  O  O1776  1  0.95180400  1.00000000  0.19127350  1
  O  O1777  1  0.95180400  1.00000000  0.44127350  1
  O  O1778  1  0.95180400  1.00000000  0.69127350  1
  O  O1779  1  0.95180400  1.00000000  0.94127350  1
  O  O1780  1  0.95180400  0.25000000  0.19127350  1
  O  O1781  1  0.95180400  0.25000000  0.44127350  1
  O  O1782  1  0.95180400  0.25000000  0.69127350  1
  O  O1783  1  0.95180400  0.25000000  0.94127350  1
  O  O1784  1  0.95180400  0.50000000  0.19127350  1
  O  O1785  1  0.95180400  0.50000000  0.44127350  1
  O  O1786  1  0.95180400  0.50000000  0.69127350  1
  O  O1787  1  0.95180400  0.50000000  0.94127350  1
  O  O1788  1  0.95180400  0.75000000  0.19127350  1
  O  O1789  1  0.95180400  0.75000000  0.44127350  1
  O  O1790  1  0.95180400  0.75000000  0.69127350  1
  O  O1791  1  0.95180400  0.75000000  0.94127350  1
  O  O1792  1  0.19383250  0.05539750  0.00834200  1
  O  O1793  1  0.19383250  0.05539750  0.25834200  1
  O  O1794  1  0.19383250  0.05539750  0.50834200  1
  O  O1795  1  0.19383250  0.05539750  0.75834200  1
  O  O1796  1  0.19383250  0.30539750  0.00834200  1
  O  O1797  1  0.19383250  0.30539750  0.25834200  1
  O  O1798  1  0.19383250  0.30539750  0.50834200  1
  O  O1799  1  0.19383250  0.30539750  0.75834200  1
  O  O1800  1  0.19383250  0.55539750  0.00834200  1
  O  O1801  1  0.19383250  0.55539750  0.25834200  1
  O  O1802  1  0.19383250  0.55539750  0.50834200  1
  O  O1803  1  0.19383250  0.55539750  0.75834200  1
  O  O1804  1  0.19383250  0.80539750  0.00834200  1
  O  O1805  1  0.19383250  0.80539750  0.25834200  1
  O  O1806  1  0.19383250  0.80539750  0.50834200  1
  O  O1807  1  0.19383250  0.80539750  0.75834200  1
  O  O1808  1  0.44383250  0.05539750  0.00834200  1
  O  O1809  1  0.44383250  0.05539750  0.25834200  1
  O  O1810  1  0.44383250  0.05539750  0.50834200  1
  O  O1811  1  0.44383250  0.05539750  0.75834200  1
  O  O1812  1  0.44383250  0.30539750  0.00834200  1
  O  O1813  1  0.44383250  0.30539750  0.25834200  1
  O  O1814  1  0.44383250  0.30539750  0.50834200  1
  O  O1815  1  0.44383250  0.30539750  0.75834200  1
  O  O1816  1  0.44383250  0.55539750  0.00834200  1
  O  O1817  1  0.44383250  0.55539750  0.25834200  1
  O  O1818  1  0.44383250  0.55539750  0.50834200  1
  O  O1819  1  0.44383250  0.55539750  0.75834200  1
  O  O1820  1  0.44383250  0.80539750  0.00834200  1
  O  O1821  1  0.44383250  0.80539750  0.25834200  1
  O  O1822  1  0.44383250  0.80539750  0.50834200  1
  O  O1823  1  0.44383250  0.80539750  0.75834200  1
  O  O1824  1  0.69383250  0.05539750  0.00834200  1
  O  O1825  1  0.69383250  0.05539750  0.25834200  1
  O  O1826  1  0.69383250  0.05539750  0.50834200  1
  O  O1827  1  0.69383250  0.05539750  0.75834200  1
  O  O1828  1  0.69383250  0.30539750  0.00834200  1
  O  O1829  1  0.69383250  0.30539750  0.25834200  1
  O  O1830  1  0.69383250  0.30539750  0.50834200  1
  O  O1831  1  0.69383250  0.30539750  0.75834200  1
  O  O1832  1  0.69383250  0.55539750  0.00834200  1
  O  O1833  1  0.69383250  0.55539750  0.25834200  1
  O  O1834  1  0.69383250  0.55539750  0.50834200  1
  O  O1835  1  0.69383250  0.55539750  0.75834200  1
  O  O1836  1  0.69383250  0.80539750  0.00834200  1
  O  O1837  1  0.69383250  0.80539750  0.25834200  1
  O  O1838  1  0.69383250  0.80539750  0.50834200  1
  O  O1839  1  0.69383250  0.80539750  0.75834200  1
  O  O1840  1  0.94383250  0.05539750  0.00834200  1
  O  O1841  1  0.94383250  0.05539750  0.25834200  1
  O  O1842  1  0.94383250  0.05539750  0.50834200  1
  O  O1843  1  0.94383250  0.05539750  0.75834200  1
  O  O1844  1  0.94383250  0.30539750  0.00834200  1
  O  O1845  1  0.94383250  0.30539750  0.25834200  1
  O  O1846  1  0.94383250  0.30539750  0.50834200  1
  O  O1847  1  0.94383250  0.30539750  0.75834200  1
  O  O1848  1  0.94383250  0.55539750  0.00834200  1
  O  O1849  1  0.94383250  0.55539750  0.25834200  1
  O  O1850  1  0.94383250  0.55539750  0.50834200  1
  O  O1851  1  0.94383250  0.55539750  0.75834200  1
  O  O1852  1  0.94383250  0.80539750  0.00834200  1
  O  O1853  1  0.94383250  0.80539750  0.25834200  1
  O  O1854  1  0.94383250  0.80539750  0.50834200  1
  O  O1855  1  0.94383250  0.80539750  0.75834200  1
  O  O1856  1  0.05539750  0.11156500  0.13334200  1
  O  O1857  1  0.05539750  0.11156500  0.38334200  1
  O  O1858  1  0.05539750  0.11156500  0.63334200  1
  O  O1859  1  0.05539750  0.11156500  0.88334200  1
  O  O1860  1  0.05539750  0.36156500  0.13334200  1
  O  O1861  1  0.05539750  0.36156500  0.38334200  1
  O  O1862  1  0.05539750  0.36156500  0.63334200  1
  O  O1863  1  0.05539750  0.36156500  0.88334200  1
  O  O1864  1  0.05539750  0.61156500  0.13334200  1
  O  O1865  1  0.05539750  0.61156500  0.38334200  1
  O  O1866  1  0.05539750  0.61156500  0.63334200  1
  O  O1867  1  0.05539750  0.61156500  0.88334200  1
  O  O1868  1  0.05539750  0.86156500  0.13334200  1
  O  O1869  1  0.05539750  0.86156500  0.38334200  1
  O  O1870  1  0.05539750  0.86156500  0.63334200  1
  O  O1871  1  0.05539750  0.86156500  0.88334200  1
  O  O1872  1  0.30539750  0.11156500  0.13334200  1
  O  O1873  1  0.30539750  0.11156500  0.38334200  1
  O  O1874  1  0.30539750  0.11156500  0.63334200  1
  O  O1875  1  0.30539750  0.11156500  0.88334200  1
  O  O1876  1  0.30539750  0.36156500  0.13334200  1
  O  O1877  1  0.30539750  0.36156500  0.38334200  1
  O  O1878  1  0.30539750  0.36156500  0.63334200  1
  O  O1879  1  0.30539750  0.36156500  0.88334200  1
  O  O1880  1  0.30539750  0.61156500  0.13334200  1
  O  O1881  1  0.30539750  0.61156500  0.38334200  1
  O  O1882  1  0.30539750  0.61156500  0.63334200  1
  O  O1883  1  0.30539750  0.61156500  0.88334200  1
  O  O1884  1  0.30539750  0.86156500  0.13334200  1
  O  O1885  1  0.30539750  0.86156500  0.38334200  1
  O  O1886  1  0.30539750  0.86156500  0.63334200  1
  O  O1887  1  0.30539750  0.86156500  0.88334200  1
  O  O1888  1  0.55539750  0.11156500  0.13334200  1
  O  O1889  1  0.55539750  0.11156500  0.38334200  1
  O  O1890  1  0.55539750  0.11156500  0.63334200  1
  O  O1891  1  0.55539750  0.11156500  0.88334200  1
  O  O1892  1  0.55539750  0.36156500  0.13334200  1
  O  O1893  1  0.55539750  0.36156500  0.38334200  1
  O  O1894  1  0.55539750  0.36156500  0.63334200  1
  O  O1895  1  0.55539750  0.36156500  0.88334200  1
  O  O1896  1  0.55539750  0.61156500  0.13334200  1
  O  O1897  1  0.55539750  0.61156500  0.38334200  1
  O  O1898  1  0.55539750  0.61156500  0.63334200  1
  O  O1899  1  0.55539750  0.61156500  0.88334200  1
  O  O1900  1  0.55539750  0.86156500  0.13334200  1
  O  O1901  1  0.55539750  0.86156500  0.38334200  1
  O  O1902  1  0.55539750  0.86156500  0.63334200  1
  O  O1903  1  0.55539750  0.86156500  0.88334200  1
  O  O1904  1  0.80539750  0.11156500  0.13334200  1
  O  O1905  1  0.80539750  0.11156500  0.38334200  1
  O  O1906  1  0.80539750  0.11156500  0.63334200  1
  O  O1907  1  0.80539750  0.11156500  0.88334200  1
  O  O1908  1  0.80539750  0.36156500  0.13334200  1
  O  O1909  1  0.80539750  0.36156500  0.38334200  1
  O  O1910  1  0.80539750  0.36156500  0.63334200  1
  O  O1911  1  0.80539750  0.36156500  0.88334200  1
  O  O1912  1  0.80539750  0.61156500  0.13334200  1
  O  O1913  1  0.80539750  0.61156500  0.38334200  1
  O  O1914  1  0.80539750  0.61156500  0.63334200  1
  O  O1915  1  0.80539750  0.61156500  0.88334200  1
  O  O1916  1  0.80539750  0.86156500  0.13334200  1
  O  O1917  1  0.80539750  0.86156500  0.38334200  1
  O  O1918  1  0.80539750  0.86156500  0.63334200  1
  O  O1919  1  0.80539750  0.86156500  0.88334200  1
  O  O1920  1  0.11156500  0.05539750  0.13334200  1
  O  O1921  1  0.11156500  0.05539750  0.38334200  1
  O  O1922  1  0.11156500  0.05539750  0.63334200  1
  O  O1923  1  0.11156500  0.05539750  0.88334200  1
  O  O1924  1  0.11156500  0.30539750  0.13334200  1
  O  O1925  1  0.11156500  0.30539750  0.38334200  1
  O  O1926  1  0.11156500  0.30539750  0.63334200  1
  O  O1927  1  0.11156500  0.30539750  0.88334200  1
  O  O1928  1  0.11156500  0.55539750  0.13334200  1
  O  O1929  1  0.11156500  0.55539750  0.38334200  1
  O  O1930  1  0.11156500  0.55539750  0.63334200  1
  O  O1931  1  0.11156500  0.55539750  0.88334200  1
  O  O1932  1  0.11156500  0.80539750  0.13334200  1
  O  O1933  1  0.11156500  0.80539750  0.38334200  1
  O  O1934  1  0.11156500  0.80539750  0.63334200  1
  O  O1935  1  0.11156500  0.80539750  0.88334200  1
  O  O1936  1  0.36156500  0.05539750  0.13334200  1
  O  O1937  1  0.36156500  0.05539750  0.38334200  1
  O  O1938  1  0.36156500  0.05539750  0.63334200  1
  O  O1939  1  0.36156500  0.05539750  0.88334200  1
  O  O1940  1  0.36156500  0.30539750  0.13334200  1
  O  O1941  1  0.36156500  0.30539750  0.38334200  1
  O  O1942  1  0.36156500  0.30539750  0.63334200  1
  O  O1943  1  0.36156500  0.30539750  0.88334200  1
  O  O1944  1  0.36156500  0.55539750  0.13334200  1
  O  O1945  1  0.36156500  0.55539750  0.38334200  1
  O  O1946  1  0.36156500  0.55539750  0.63334200  1
  O  O1947  1  0.36156500  0.55539750  0.88334200  1
  O  O1948  1  0.36156500  0.80539750  0.13334200  1
  O  O1949  1  0.36156500  0.80539750  0.38334200  1
  O  O1950  1  0.36156500  0.80539750  0.63334200  1
  O  O1951  1  0.36156500  0.80539750  0.88334200  1
  O  O1952  1  0.61156500  0.05539750  0.13334200  1
  O  O1953  1  0.61156500  0.05539750  0.38334200  1
  O  O1954  1  0.61156500  0.05539750  0.63334200  1
  O  O1955  1  0.61156500  0.05539750  0.88334200  1
  O  O1956  1  0.61156500  0.30539750  0.13334200  1
  O  O1957  1  0.61156500  0.30539750  0.38334200  1
  O  O1958  1  0.61156500  0.30539750  0.63334200  1
  O  O1959  1  0.61156500  0.30539750  0.88334200  1
  O  O1960  1  0.61156500  0.55539750  0.13334200  1
  O  O1961  1  0.61156500  0.55539750  0.38334200  1
  O  O1962  1  0.61156500  0.55539750  0.63334200  1
  O  O1963  1  0.61156500  0.55539750  0.88334200  1
  O  O1964  1  0.61156500  0.80539750  0.13334200  1
  O  O1965  1  0.61156500  0.80539750  0.38334200  1
  O  O1966  1  0.61156500  0.80539750  0.63334200  1
  O  O1967  1  0.61156500  0.80539750  0.88334200  1
  O  O1968  1  0.86156500  0.05539750  0.13334200  1
  O  O1969  1  0.86156500  0.05539750  0.38334200  1
  O  O1970  1  0.86156500  0.05539750  0.63334200  1
  O  O1971  1  0.86156500  0.05539750  0.88334200  1
  O  O1972  1  0.86156500  0.30539750  0.13334200  1
  O  O1973  1  0.86156500  0.30539750  0.38334200  1
  O  O1974  1  0.86156500  0.30539750  0.63334200  1
  O  O1975  1  0.86156500  0.30539750  0.88334200  1
  O  O1976  1  0.86156500  0.55539750  0.13334200  1
  O  O1977  1  0.86156500  0.55539750  0.38334200  1
  O  O1978  1  0.86156500  0.55539750  0.63334200  1
  O  O1979  1  0.86156500  0.55539750  0.88334200  1
  O  O1980  1  0.86156500  0.80539750  0.13334200  1
  O  O1981  1  0.86156500  0.80539750  0.38334200  1
  O  O1982  1  0.86156500  0.80539750  0.63334200  1
  O  O1983  1  0.86156500  0.80539750  0.88334200  1
  O  O1984  1  0.16666675  0.08333325  0.20739000  1
  O  O1985  1  0.16666675  0.08333325  0.45739000  1
  O  O1986  1  0.16666675  0.08333325  0.70739000  1
  O  O1987  1  0.16666675  0.08333325  0.95739000  1
  O  O1988  1  0.16666675  0.33333325  0.20739000  1
  O  O1989  1  0.16666675  0.33333325  0.45739000  1
  O  O1990  1  0.16666675  0.33333325  0.70739000  1
  O  O1991  1  0.16666675  0.33333325  0.95739000  1
  O  O1992  1  0.16666675  0.58333325  0.20739000  1
  O  O1993  1  0.16666675  0.58333325  0.45739000  1
  O  O1994  1  0.16666675  0.58333325  0.70739000  1
  O  O1995  1  0.16666675  0.58333325  0.95739000  1
  O  O1996  1  0.16666675  0.83333325  0.20739000  1
  O  O1997  1  0.16666675  0.83333325  0.45739000  1
  O  O1998  1  0.16666675  0.83333325  0.70739000  1
  O  O1999  1  0.16666675  0.83333325  0.95739000  1
  O  O2000  1  0.41666675  0.08333325  0.20739000  1
  O  O2001  1  0.41666675  0.08333325  0.45739000  1
  O  O2002  1  0.41666675  0.08333325  0.70739000  1
  O  O2003  1  0.41666675  0.08333325  0.95739000  1
  O  O2004  1  0.41666675  0.33333325  0.20739000  1
  O  O2005  1  0.41666675  0.33333325  0.45739000  1
  O  O2006  1  0.41666675  0.33333325  0.70739000  1
  O  O2007  1  0.41666675  0.33333325  0.95739000  1
  O  O2008  1  0.41666675  0.58333325  0.20739000  1
  O  O2009  1  0.41666675  0.58333325  0.45739000  1
  O  O2010  1  0.41666675  0.58333325  0.70739000  1
  O  O2011  1  0.41666675  0.58333325  0.95739000  1
  O  O2012  1  0.41666675  0.83333325  0.20739000  1
  O  O2013  1  0.41666675  0.83333325  0.45739000  1
  O  O2014  1  0.41666675  0.83333325  0.70739000  1
  O  O2015  1  0.41666675  0.83333325  0.95739000  1
  O  O2016  1  0.66666675  0.08333325  0.20739000  1
  O  O2017  1  0.66666675  0.08333325  0.45739000  1
  O  O2018  1  0.66666675  0.08333325  0.70739000  1
  O  O2019  1  0.66666675  0.08333325  0.95739000  1
  O  O2020  1  0.66666675  0.33333325  0.20739000  1
  O  O2021  1  0.66666675  0.33333325  0.45739000  1
  O  O2022  1  0.66666675  0.33333325  0.70739000  1
  O  O2023  1  0.66666675  0.33333325  0.95739000  1
  O  O2024  1  0.66666675  0.58333325  0.20739000  1
  O  O2025  1  0.66666675  0.58333325  0.45739000  1
  O  O2026  1  0.66666675  0.58333325  0.70739000  1
  O  O2027  1  0.66666675  0.58333325  0.95739000  1
  O  O2028  1  0.66666675  0.83333325  0.20739000  1
  O  O2029  1  0.66666675  0.83333325  0.45739000  1
  O  O2030  1  0.66666675  0.83333325  0.70739000  1
  O  O2031  1  0.66666675  0.83333325  0.95739000  1
  O  O2032  1  0.91666675  0.08333325  0.20739000  1
  O  O2033  1  0.91666675  0.08333325  0.45739000  1
  O  O2034  1  0.91666675  0.08333325  0.70739000  1
  O  O2035  1  0.91666675  0.08333325  0.95739000  1
  O  O2036  1  0.91666675  0.33333325  0.20739000  1
  O  O2037  1  0.91666675  0.33333325  0.45739000  1
  O  O2038  1  0.91666675  0.33333325  0.70739000  1
  O  O2039  1  0.91666675  0.33333325  0.95739000  1
  O  O2040  1  0.91666675  0.58333325  0.20739000  1
  O  O2041  1  0.91666675  0.58333325  0.45739000  1
  O  O2042  1  0.91666675  0.58333325  0.70739000  1
  O  O2043  1  0.91666675  0.58333325  0.95739000  1
  O  O2044  1  0.91666675  0.83333325  0.20739000  1
  O  O2045  1  0.91666675  0.83333325  0.45739000  1
  O  O2046  1  0.91666675  0.83333325  0.70739000  1
  O  O2047  1  0.91666675  0.83333325  0.95739000  1
  O  O2048  1  0.00000000  0.00000000  0.24232350  1
  O  O2049  1  0.00000000  0.00000000  0.49232350  1
  O  O2050  1  0.00000000  0.00000000  0.74232350  1
  O  O2051  1  0.00000000  0.00000000  0.99232350  1
  O  O2052  1  1.00000000  0.25000000  0.24232350  1
  O  O2053  1  1.00000000  0.25000000  0.49232350  1
  O  O2054  1  1.00000000  0.25000000  0.74232350  1
  O  O2055  1  1.00000000  0.25000000  0.99232350  1
  O  O2056  1  1.00000000  0.50000000  0.24232350  1
  O  O2057  1  1.00000000  0.50000000  0.49232350  1
  O  O2058  1  1.00000000  0.50000000  0.74232350  1
  O  O2059  1  1.00000000  0.50000000  0.99232350  1
  O  O2060  1  1.00000000  0.75000000  0.24232350  1
  O  O2061  1  1.00000000  0.75000000  0.49232350  1
  O  O2062  1  1.00000000  0.75000000  0.74232350  1
  O  O2063  1  1.00000000  0.75000000  0.99232350  1
  O  O2064  1  0.25000000  1.00000000  0.24232350  1
  O  O2065  1  0.25000000  1.00000000  0.49232350  1
  O  O2066  1  0.25000000  1.00000000  0.74232350  1
  O  O2067  1  0.25000000  1.00000000  0.99232350  1
  O  O2068  1  0.25000000  0.25000000  0.24232350  1
  O  O2069  1  0.25000000  0.25000000  0.49232350  1
  O  O2070  1  0.25000000  0.25000000  0.74232350  1
  O  O2071  1  0.25000000  0.25000000  0.99232350  1
  O  O2072  1  0.25000000  0.50000000  0.24232350  1
  O  O2073  1  0.25000000  0.50000000  0.49232350  1
  O  O2074  1  0.25000000  0.50000000  0.74232350  1
  O  O2075  1  0.25000000  0.50000000  0.99232350  1
  O  O2076  1  0.25000000  0.75000000  0.24232350  1
  O  O2077  1  0.25000000  0.75000000  0.49232350  1
  O  O2078  1  0.25000000  0.75000000  0.74232350  1
  O  O2079  1  0.25000000  0.75000000  0.99232350  1
  O  O2080  1  0.50000000  1.00000000  0.24232350  1
  O  O2081  1  0.50000000  1.00000000  0.49232350  1
  O  O2082  1  0.50000000  1.00000000  0.74232350  1
  O  O2083  1  0.50000000  1.00000000  0.99232350  1
  O  O2084  1  0.50000000  0.25000000  0.24232350  1
  O  O2085  1  0.50000000  0.25000000  0.49232350  1
  O  O2086  1  0.50000000  0.25000000  0.74232350  1
  O  O2087  1  0.50000000  0.25000000  0.99232350  1
  O  O2088  1  0.50000000  0.50000000  0.24232350  1
  O  O2089  1  0.50000000  0.50000000  0.49232350  1
  O  O2090  1  0.50000000  0.50000000  0.74232350  1
  O  O2091  1  0.50000000  0.50000000  0.99232350  1
  O  O2092  1  0.50000000  0.75000000  0.24232350  1
  O  O2093  1  0.50000000  0.75000000  0.49232350  1
  O  O2094  1  0.50000000  0.75000000  0.74232350  1
  O  O2095  1  0.50000000  0.75000000  0.99232350  1
  O  O2096  1  0.75000000  1.00000000  0.24232350  1
  O  O2097  1  0.75000000  1.00000000  0.49232350  1
  O  O2098  1  0.75000000  1.00000000  0.74232350  1
  O  O2099  1  0.75000000  1.00000000  0.99232350  1
  O  O2100  1  0.75000000  0.25000000  0.24232350  1
  O  O2101  1  0.75000000  0.25000000  0.49232350  1
  O  O2102  1  0.75000000  0.25000000  0.74232350  1
  O  O2103  1  0.75000000  0.25000000  0.99232350  1
  O  O2104  1  0.75000000  0.50000000  0.24232350  1
  O  O2105  1  0.75000000  0.50000000  0.49232350  1
  O  O2106  1  0.75000000  0.50000000  0.74232350  1
  O  O2107  1  0.75000000  0.50000000  0.99232350  1
  O  O2108  1  0.75000000  0.75000000  0.24232350  1
  O  O2109  1  0.75000000  0.75000000  0.49232350  1
  O  O2110  1  0.75000000  0.75000000  0.74232350  1
  O  O2111  1  0.75000000  0.75000000  0.99232350  1
  O  O2112  1  0.19383250  0.13843500  0.13334200  1
  O  O2113  1  0.19383250  0.13843500  0.38334200  1
  O  O2114  1  0.19383250  0.13843500  0.63334200  1
  O  O2115  1  0.19383250  0.13843500  0.88334200  1
  O  O2116  1  0.19383250  0.38843500  0.13334200  1
  O  O2117  1  0.19383250  0.38843500  0.38334200  1
  O  O2118  1  0.19383250  0.38843500  0.63334200  1
  O  O2119  1  0.19383250  0.38843500  0.88334200  1
  O  O2120  1  0.19383250  0.63843500  0.13334200  1
  O  O2121  1  0.19383250  0.63843500  0.38334200  1
  O  O2122  1  0.19383250  0.63843500  0.63334200  1
  O  O2123  1  0.19383250  0.63843500  0.88334200  1
  O  O2124  1  0.19383250  0.88843500  0.13334200  1
  O  O2125  1  0.19383250  0.88843500  0.38334200  1
  O  O2126  1  0.19383250  0.88843500  0.63334200  1
  O  O2127  1  0.19383250  0.88843500  0.88334200  1
  O  O2128  1  0.44383250  0.13843500  0.13334200  1
  O  O2129  1  0.44383250  0.13843500  0.38334200  1
  O  O2130  1  0.44383250  0.13843500  0.63334200  1
  O  O2131  1  0.44383250  0.13843500  0.88334200  1
  O  O2132  1  0.44383250  0.38843500  0.13334200  1
  O  O2133  1  0.44383250  0.38843500  0.38334200  1
  O  O2134  1  0.44383250  0.38843500  0.63334200  1
  O  O2135  1  0.44383250  0.38843500  0.88334200  1
  O  O2136  1  0.44383250  0.63843500  0.13334200  1
  O  O2137  1  0.44383250  0.63843500  0.38334200  1
  O  O2138  1  0.44383250  0.63843500  0.63334200  1
  O  O2139  1  0.44383250  0.63843500  0.88334200  1
  O  O2140  1  0.44383250  0.88843500  0.13334200  1
  O  O2141  1  0.44383250  0.88843500  0.38334200  1
  O  O2142  1  0.44383250  0.88843500  0.63334200  1
  O  O2143  1  0.44383250  0.88843500  0.88334200  1
  O  O2144  1  0.69383250  0.13843500  0.13334200  1
  O  O2145  1  0.69383250  0.13843500  0.38334200  1
  O  O2146  1  0.69383250  0.13843500  0.63334200  1
  O  O2147  1  0.69383250  0.13843500  0.88334200  1
  O  O2148  1  0.69383250  0.38843500  0.13334200  1
  O  O2149  1  0.69383250  0.38843500  0.38334200  1
  O  O2150  1  0.69383250  0.38843500  0.63334200  1
  O  O2151  1  0.69383250  0.38843500  0.88334200  1
  O  O2152  1  0.69383250  0.63843500  0.13334200  1
  O  O2153  1  0.69383250  0.63843500  0.38334200  1
  O  O2154  1  0.69383250  0.63843500  0.63334200  1
  O  O2155  1  0.69383250  0.63843500  0.88334200  1
  O  O2156  1  0.69383250  0.88843500  0.13334200  1
  O  O2157  1  0.69383250  0.88843500  0.38334200  1
  O  O2158  1  0.69383250  0.88843500  0.63334200  1
  O  O2159  1  0.69383250  0.88843500  0.88334200  1
  O  O2160  1  0.94383250  0.13843500  0.13334200  1
  O  O2161  1  0.94383250  0.13843500  0.38334200  1
  O  O2162  1  0.94383250  0.13843500  0.63334200  1
  O  O2163  1  0.94383250  0.13843500  0.88334200  1
  O  O2164  1  0.94383250  0.38843500  0.13334200  1
  O  O2165  1  0.94383250  0.38843500  0.38334200  1
  O  O2166  1  0.94383250  0.38843500  0.63334200  1
  O  O2167  1  0.94383250  0.38843500  0.88334200  1
  O  O2168  1  0.94383250  0.63843500  0.13334200  1
  O  O2169  1  0.94383250  0.63843500  0.38334200  1
  O  O2170  1  0.94383250  0.63843500  0.63334200  1
  O  O2171  1  0.94383250  0.63843500  0.88334200  1
  O  O2172  1  0.94383250  0.88843500  0.13334200  1
  O  O2173  1  0.94383250  0.88843500  0.38334200  1
  O  O2174  1  0.94383250  0.88843500  0.63334200  1
  O  O2175  1  0.94383250  0.88843500  0.88334200  1
  O  O2176  1  0.05616750  0.19460250  0.13334200  1
  O  O2177  1  0.05616750  0.19460250  0.38334200  1
  O  O2178  1  0.05616750  0.19460250  0.63334200  1
  O  O2179  1  0.05616750  0.19460250  0.88334200  1
  O  O2180  1  0.05616750  0.44460250  0.13334200  1
  O  O2181  1  0.05616750  0.44460250  0.38334200  1
  O  O2182  1  0.05616750  0.44460250  0.63334200  1
  O  O2183  1  0.05616750  0.44460250  0.88334200  1
  O  O2184  1  0.05616750  0.69460250  0.13334200  1
  O  O2185  1  0.05616750  0.69460250  0.38334200  1
  O  O2186  1  0.05616750  0.69460250  0.63334200  1
  O  O2187  1  0.05616750  0.69460250  0.88334200  1
  O  O2188  1  0.05616750  0.94460250  0.13334200  1
  O  O2189  1  0.05616750  0.94460250  0.38334200  1
  O  O2190  1  0.05616750  0.94460250  0.63334200  1
  O  O2191  1  0.05616750  0.94460250  0.88334200  1
  O  O2192  1  0.30616750  0.19460250  0.13334200  1
  O  O2193  1  0.30616750  0.19460250  0.38334200  1
  O  O2194  1  0.30616750  0.19460250  0.63334200  1
  O  O2195  1  0.30616750  0.19460250  0.88334200  1
  O  O2196  1  0.30616750  0.44460250  0.13334200  1
  O  O2197  1  0.30616750  0.44460250  0.38334200  1
  O  O2198  1  0.30616750  0.44460250  0.63334200  1
  O  O2199  1  0.30616750  0.44460250  0.88334200  1
  O  O2200  1  0.30616750  0.69460250  0.13334200  1
  O  O2201  1  0.30616750  0.69460250  0.38334200  1
  O  O2202  1  0.30616750  0.69460250  0.63334200  1
  O  O2203  1  0.30616750  0.69460250  0.88334200  1
  O  O2204  1  0.30616750  0.94460250  0.13334200  1
  O  O2205  1  0.30616750  0.94460250  0.38334200  1
  O  O2206  1  0.30616750  0.94460250  0.63334200  1
  O  O2207  1  0.30616750  0.94460250  0.88334200  1
  O  O2208  1  0.55616750  0.19460250  0.13334200  1
  O  O2209  1  0.55616750  0.19460250  0.38334200  1
  O  O2210  1  0.55616750  0.19460250  0.63334200  1
  O  O2211  1  0.55616750  0.19460250  0.88334200  1
  O  O2212  1  0.55616750  0.44460250  0.13334200  1
  O  O2213  1  0.55616750  0.44460250  0.38334200  1
  O  O2214  1  0.55616750  0.44460250  0.63334200  1
  O  O2215  1  0.55616750  0.44460250  0.88334200  1
  O  O2216  1  0.55616750  0.69460250  0.13334200  1
  O  O2217  1  0.55616750  0.69460250  0.38334200  1
  O  O2218  1  0.55616750  0.69460250  0.63334200  1
  O  O2219  1  0.55616750  0.69460250  0.88334200  1
  O  O2220  1  0.55616750  0.94460250  0.13334200  1
  O  O2221  1  0.55616750  0.94460250  0.38334200  1
  O  O2222  1  0.55616750  0.94460250  0.63334200  1
  O  O2223  1  0.55616750  0.94460250  0.88334200  1
  O  O2224  1  0.80616750  0.19460250  0.13334200  1
  O  O2225  1  0.80616750  0.19460250  0.38334200  1
  O  O2226  1  0.80616750  0.19460250  0.63334200  1
  O  O2227  1  0.80616750  0.19460250  0.88334200  1
  O  O2228  1  0.80616750  0.44460250  0.13334200  1
  O  O2229  1  0.80616750  0.44460250  0.38334200  1
  O  O2230  1  0.80616750  0.44460250  0.63334200  1
  O  O2231  1  0.80616750  0.44460250  0.88334200  1
  O  O2232  1  0.80616750  0.69460250  0.13334200  1
  O  O2233  1  0.80616750  0.69460250  0.38334200  1
  O  O2234  1  0.80616750  0.69460250  0.63334200  1
  O  O2235  1  0.80616750  0.69460250  0.88334200  1
  O  O2236  1  0.80616750  0.94460250  0.13334200  1
  O  O2237  1  0.80616750  0.94460250  0.38334200  1
  O  O2238  1  0.80616750  0.94460250  0.63334200  1
  O  O2239  1  0.80616750  0.94460250  0.88334200  1
  O  O2240  1  0.11156500  0.05616750  0.00834200  1
  O  O2241  1  0.11156500  0.05616750  0.25834200  1
  O  O2242  1  0.11156500  0.05616750  0.50834200  1
  O  O2243  1  0.11156500  0.05616750  0.75834200  1
  O  O2244  1  0.11156500  0.30616750  0.00834200  1
  O  O2245  1  0.11156500  0.30616750  0.25834200  1
  O  O2246  1  0.11156500  0.30616750  0.50834200  1
  O  O2247  1  0.11156500  0.30616750  0.75834200  1
  O  O2248  1  0.11156500  0.55616750  0.00834200  1
  O  O2249  1  0.11156500  0.55616750  0.25834200  1
  O  O2250  1  0.11156500  0.55616750  0.50834200  1
  O  O2251  1  0.11156500  0.55616750  0.75834200  1
  O  O2252  1  0.11156500  0.80616750  0.00834200  1
  O  O2253  1  0.11156500  0.80616750  0.25834200  1
  O  O2254  1  0.11156500  0.80616750  0.50834200  1
  O  O2255  1  0.11156500  0.80616750  0.75834200  1
  O  O2256  1  0.36156500  0.05616750  0.00834200  1
  O  O2257  1  0.36156500  0.05616750  0.25834200  1
  O  O2258  1  0.36156500  0.05616750  0.50834200  1
  O  O2259  1  0.36156500  0.05616750  0.75834200  1
  O  O2260  1  0.36156500  0.30616750  0.00834200  1
  O  O2261  1  0.36156500  0.30616750  0.25834200  1
  O  O2262  1  0.36156500  0.30616750  0.50834200  1
  O  O2263  1  0.36156500  0.30616750  0.75834200  1
  O  O2264  1  0.36156500  0.55616750  0.00834200  1
  O  O2265  1  0.36156500  0.55616750  0.25834200  1
  O  O2266  1  0.36156500  0.55616750  0.50834200  1
  O  O2267  1  0.36156500  0.55616750  0.75834200  1
  O  O2268  1  0.36156500  0.80616750  0.00834200  1
  O  O2269  1  0.36156500  0.80616750  0.25834200  1
  O  O2270  1  0.36156500  0.80616750  0.50834200  1
  O  O2271  1  0.36156500  0.80616750  0.75834200  1
  O  O2272  1  0.61156500  0.05616750  0.00834200  1
  O  O2273  1  0.61156500  0.05616750  0.25834200  1
  O  O2274  1  0.61156500  0.05616750  0.50834200  1
  O  O2275  1  0.61156500  0.05616750  0.75834200  1
  O  O2276  1  0.61156500  0.30616750  0.00834200  1
  O  O2277  1  0.61156500  0.30616750  0.25834200  1
  O  O2278  1  0.61156500  0.30616750  0.50834200  1
  O  O2279  1  0.61156500  0.30616750  0.75834200  1
  O  O2280  1  0.61156500  0.55616750  0.00834200  1
  O  O2281  1  0.61156500  0.55616750  0.25834200  1
  O  O2282  1  0.61156500  0.55616750  0.50834200  1
  O  O2283  1  0.61156500  0.55616750  0.75834200  1
  O  O2284  1  0.61156500  0.80616750  0.00834200  1
  O  O2285  1  0.61156500  0.80616750  0.25834200  1
  O  O2286  1  0.61156500  0.80616750  0.50834200  1
  O  O2287  1  0.61156500  0.80616750  0.75834200  1
  O  O2288  1  0.86156500  0.05616750  0.00834200  1
  O  O2289  1  0.86156500  0.05616750  0.25834200  1
  O  O2290  1  0.86156500  0.05616750  0.50834200  1
  O  O2291  1  0.86156500  0.05616750  0.75834200  1
  O  O2292  1  0.86156500  0.30616750  0.00834200  1
  O  O2293  1  0.86156500  0.30616750  0.25834200  1
  O  O2294  1  0.86156500  0.30616750  0.50834200  1
  O  O2295  1  0.86156500  0.30616750  0.75834200  1
  O  O2296  1  0.86156500  0.55616750  0.00834200  1
  O  O2297  1  0.86156500  0.55616750  0.25834200  1
  O  O2298  1  0.86156500  0.55616750  0.50834200  1
  O  O2299  1  0.86156500  0.55616750  0.75834200  1
  O  O2300  1  0.86156500  0.80616750  0.00834200  1
  O  O2301  1  0.86156500  0.80616750  0.25834200  1
  O  O2302  1  0.86156500  0.80616750  0.50834200  1
  O  O2303  1  0.86156500  0.80616750  0.75834200  1
  O  O2304  1  0.19460250  0.13843500  0.00834200  1
  O  O2305  1  0.19460250  0.13843500  0.25834200  1
  O  O2306  1  0.19460250  0.13843500  0.50834200  1
  O  O2307  1  0.19460250  0.13843500  0.75834200  1
  O  O2308  1  0.19460250  0.38843500  0.00834200  1
  O  O2309  1  0.19460250  0.38843500  0.25834200  1
  O  O2310  1  0.19460250  0.38843500  0.50834200  1
  O  O2311  1  0.19460250  0.38843500  0.75834200  1
  O  O2312  1  0.19460250  0.63843500  0.00834200  1
  O  O2313  1  0.19460250  0.63843500  0.25834200  1
  O  O2314  1  0.19460250  0.63843500  0.50834200  1
  O  O2315  1  0.19460250  0.63843500  0.75834200  1
  O  O2316  1  0.19460250  0.88843500  0.00834200  1
  O  O2317  1  0.19460250  0.88843500  0.25834200  1
  O  O2318  1  0.19460250  0.88843500  0.50834200  1
  O  O2319  1  0.19460250  0.88843500  0.75834200  1
  O  O2320  1  0.44460250  0.13843500  0.00834200  1
  O  O2321  1  0.44460250  0.13843500  0.25834200  1
  O  O2322  1  0.44460250  0.13843500  0.50834200  1
  O  O2323  1  0.44460250  0.13843500  0.75834200  1
  O  O2324  1  0.44460250  0.38843500  0.00834200  1
  O  O2325  1  0.44460250  0.38843500  0.25834200  1
  O  O2326  1  0.44460250  0.38843500  0.50834200  1
  O  O2327  1  0.44460250  0.38843500  0.75834200  1
  O  O2328  1  0.44460250  0.63843500  0.00834200  1
  O  O2329  1  0.44460250  0.63843500  0.25834200  1
  O  O2330  1  0.44460250  0.63843500  0.50834200  1
  O  O2331  1  0.44460250  0.63843500  0.75834200  1
  O  O2332  1  0.44460250  0.88843500  0.00834200  1
  O  O2333  1  0.44460250  0.88843500  0.25834200  1
  O  O2334  1  0.44460250  0.88843500  0.50834200  1
  O  O2335  1  0.44460250  0.88843500  0.75834200  1
  O  O2336  1  0.69460250  0.13843500  0.00834200  1
  O  O2337  1  0.69460250  0.13843500  0.25834200  1
  O  O2338  1  0.69460250  0.13843500  0.50834200  1
  O  O2339  1  0.69460250  0.13843500  0.75834200  1
  O  O2340  1  0.69460250  0.38843500  0.00834200  1
  O  O2341  1  0.69460250  0.38843500  0.25834200  1
  O  O2342  1  0.69460250  0.38843500  0.50834200  1
  O  O2343  1  0.69460250  0.38843500  0.75834200  1
  O  O2344  1  0.69460250  0.63843500  0.00834200  1
  O  O2345  1  0.69460250  0.63843500  0.25834200  1
  O  O2346  1  0.69460250  0.63843500  0.50834200  1
  O  O2347  1  0.69460250  0.63843500  0.75834200  1
  O  O2348  1  0.69460250  0.88843500  0.00834200  1
  O  O2349  1  0.69460250  0.88843500  0.25834200  1
  O  O2350  1  0.69460250  0.88843500  0.50834200  1
  O  O2351  1  0.69460250  0.88843500  0.75834200  1
  O  O2352  1  0.94460250  0.13843500  0.00834200  1
  O  O2353  1  0.94460250  0.13843500  0.25834200  1
  O  O2354  1  0.94460250  0.13843500  0.50834200  1
  O  O2355  1  0.94460250  0.13843500  0.75834200  1
  O  O2356  1  0.94460250  0.38843500  0.00834200  1
  O  O2357  1  0.94460250  0.38843500  0.25834200  1
  O  O2358  1  0.94460250  0.38843500  0.50834200  1
  O  O2359  1  0.94460250  0.38843500  0.75834200  1
  O  O2360  1  0.94460250  0.63843500  0.00834200  1
  O  O2361  1  0.94460250  0.63843500  0.25834200  1
  O  O2362  1  0.94460250  0.63843500  0.50834200  1
  O  O2363  1  0.94460250  0.63843500  0.75834200  1
  O  O2364  1  0.94460250  0.88843500  0.00834200  1
  O  O2365  1  0.94460250  0.88843500  0.25834200  1
  O  O2366  1  0.94460250  0.88843500  0.50834200  1
  O  O2367  1  0.94460250  0.88843500  0.75834200  1
  O  O2368  1  1.00000000  0.20180400  0.19127350  1
  O  O2369  1  1.00000000  0.20180400  0.44127350  1
  O  O2370  1  1.00000000  0.20180400  0.69127350  1
  O  O2371  1  1.00000000  0.20180400  0.94127350  1
  O  O2372  1  1.00000000  0.45180400  0.19127350  1
  O  O2373  1  1.00000000  0.45180400  0.44127350  1
  O  O2374  1  1.00000000  0.45180400  0.69127350  1
  O  O2375  1  1.00000000  0.45180400  0.94127350  1
  O  O2376  1  1.00000000  0.70180400  0.19127350  1
  O  O2377  1  1.00000000  0.70180400  0.44127350  1
  O  O2378  1  1.00000000  0.70180400  0.69127350  1
  O  O2379  1  1.00000000  0.70180400  0.94127350  1
  O  O2380  1  1.00000000  0.95180400  0.19127350  1
  O  O2381  1  1.00000000  0.95180400  0.44127350  1
  O  O2382  1  1.00000000  0.95180400  0.69127350  1
  O  O2383  1  1.00000000  0.95180400  0.94127350  1
  O  O2384  1  0.25000000  0.20180400  0.19127350  1
  O  O2385  1  0.25000000  0.20180400  0.44127350  1
  O  O2386  1  0.25000000  0.20180400  0.69127350  1
  O  O2387  1  0.25000000  0.20180400  0.94127350  1
  O  O2388  1  0.25000000  0.45180400  0.19127350  1
  O  O2389  1  0.25000000  0.45180400  0.44127350  1
  O  O2390  1  0.25000000  0.45180400  0.69127350  1
  O  O2391  1  0.25000000  0.45180400  0.94127350  1
  O  O2392  1  0.25000000  0.70180400  0.19127350  1
  O  O2393  1  0.25000000  0.70180400  0.44127350  1
  O  O2394  1  0.25000000  0.70180400  0.69127350  1
  O  O2395  1  0.25000000  0.70180400  0.94127350  1
  O  O2396  1  0.25000000  0.95180400  0.19127350  1
  O  O2397  1  0.25000000  0.95180400  0.44127350  1
  O  O2398  1  0.25000000  0.95180400  0.69127350  1
  O  O2399  1  0.25000000  0.95180400  0.94127350  1
  O  O2400  1  0.50000000  0.20180400  0.19127350  1
  O  O2401  1  0.50000000  0.20180400  0.44127350  1
  O  O2402  1  0.50000000  0.20180400  0.69127350  1
  O  O2403  1  0.50000000  0.20180400  0.94127350  1
  O  O2404  1  0.50000000  0.45180400  0.19127350  1
  O  O2405  1  0.50000000  0.45180400  0.44127350  1
  O  O2406  1  0.50000000  0.45180400  0.69127350  1
  O  O2407  1  0.50000000  0.45180400  0.94127350  1
  O  O2408  1  0.50000000  0.70180400  0.19127350  1
  O  O2409  1  0.50000000  0.70180400  0.44127350  1
  O  O2410  1  0.50000000  0.70180400  0.69127350  1
  O  O2411  1  0.50000000  0.70180400  0.94127350  1
  O  O2412  1  0.50000000  0.95180400  0.19127350  1
  O  O2413  1  0.50000000  0.95180400  0.44127350  1
  O  O2414  1  0.50000000  0.95180400  0.69127350  1
  O  O2415  1  0.50000000  0.95180400  0.94127350  1
  O  O2416  1  0.75000000  0.20180400  0.19127350  1
  O  O2417  1  0.75000000  0.20180400  0.44127350  1
  O  O2418  1  0.75000000  0.20180400  0.69127350  1
  O  O2419  1  0.75000000  0.20180400  0.94127350  1
  O  O2420  1  0.75000000  0.45180400  0.19127350  1
  O  O2421  1  0.75000000  0.45180400  0.44127350  1
  O  O2422  1  0.75000000  0.45180400  0.69127350  1
  O  O2423  1  0.75000000  0.45180400  0.94127350  1
  O  O2424  1  0.75000000  0.70180400  0.19127350  1
  O  O2425  1  0.75000000  0.70180400  0.44127350  1
  O  O2426  1  0.75000000  0.70180400  0.69127350  1
  O  O2427  1  0.75000000  0.70180400  0.94127350  1
  O  O2428  1  0.75000000  0.95180400  0.19127350  1
  O  O2429  1  0.75000000  0.95180400  0.44127350  1
  O  O2430  1  0.75000000  0.95180400  0.69127350  1
  O  O2431  1  0.75000000  0.95180400  0.94127350  1
  O  O2432  1  0.05539750  0.19383250  0.00834200  1
  O  O2433  1  0.05539750  0.19383250  0.25834200  1
  O  O2434  1  0.05539750  0.19383250  0.50834200  1
  O  O2435  1  0.05539750  0.19383250  0.75834200  1
  O  O2436  1  0.05539750  0.44383250  0.00834200  1
  O  O2437  1  0.05539750  0.44383250  0.25834200  1
  O  O2438  1  0.05539750  0.44383250  0.50834200  1
  O  O2439  1  0.05539750  0.44383250  0.75834200  1
  O  O2440  1  0.05539750  0.69383250  0.00834200  1
  O  O2441  1  0.05539750  0.69383250  0.25834200  1
  O  O2442  1  0.05539750  0.69383250  0.50834200  1
  O  O2443  1  0.05539750  0.69383250  0.75834200  1
  O  O2444  1  0.05539750  0.94383250  0.00834200  1
  O  O2445  1  0.05539750  0.94383250  0.25834200  1
  O  O2446  1  0.05539750  0.94383250  0.50834200  1
  O  O2447  1  0.05539750  0.94383250  0.75834200  1
  O  O2448  1  0.30539750  0.19383250  0.00834200  1
  O  O2449  1  0.30539750  0.19383250  0.25834200  1
  O  O2450  1  0.30539750  0.19383250  0.50834200  1
  O  O2451  1  0.30539750  0.19383250  0.75834200  1
  O  O2452  1  0.30539750  0.44383250  0.00834200  1
  O  O2453  1  0.30539750  0.44383250  0.25834200  1
  O  O2454  1  0.30539750  0.44383250  0.50834200  1
  O  O2455  1  0.30539750  0.44383250  0.75834200  1
  O  O2456  1  0.30539750  0.69383250  0.00834200  1
  O  O2457  1  0.30539750  0.69383250  0.25834200  1
  O  O2458  1  0.30539750  0.69383250  0.50834200  1
  O  O2459  1  0.30539750  0.69383250  0.75834200  1
  O  O2460  1  0.30539750  0.94383250  0.00834200  1
  O  O2461  1  0.30539750  0.94383250  0.25834200  1
  O  O2462  1  0.30539750  0.94383250  0.50834200  1
  O  O2463  1  0.30539750  0.94383250  0.75834200  1
  O  O2464  1  0.55539750  0.19383250  0.00834200  1
  O  O2465  1  0.55539750  0.19383250  0.25834200  1
  O  O2466  1  0.55539750  0.19383250  0.50834200  1
  O  O2467  1  0.55539750  0.19383250  0.75834200  1
  O  O2468  1  0.55539750  0.44383250  0.00834200  1
  O  O2469  1  0.55539750  0.44383250  0.25834200  1
  O  O2470  1  0.55539750  0.44383250  0.50834200  1
  O  O2471  1  0.55539750  0.44383250  0.75834200  1
  O  O2472  1  0.55539750  0.69383250  0.00834200  1
  O  O2473  1  0.55539750  0.69383250  0.25834200  1
  O  O2474  1  0.55539750  0.69383250  0.50834200  1
  O  O2475  1  0.55539750  0.69383250  0.75834200  1
  O  O2476  1  0.55539750  0.94383250  0.00834200  1
  O  O2477  1  0.55539750  0.94383250  0.25834200  1
  O  O2478  1  0.55539750  0.94383250  0.50834200  1
  O  O2479  1  0.55539750  0.94383250  0.75834200  1
  O  O2480  1  0.80539750  0.19383250  0.00834200  1
  O  O2481  1  0.80539750  0.19383250  0.25834200  1
  O  O2482  1  0.80539750  0.19383250  0.50834200  1
  O  O2483  1  0.80539750  0.19383250  0.75834200  1
  O  O2484  1  0.80539750  0.44383250  0.00834200  1
  O  O2485  1  0.80539750  0.44383250  0.25834200  1
  O  O2486  1  0.80539750  0.44383250  0.50834200  1
  O  O2487  1  0.80539750  0.44383250  0.75834200  1
  O  O2488  1  0.80539750  0.69383250  0.00834200  1
  O  O2489  1  0.80539750  0.69383250  0.25834200  1
  O  O2490  1  0.80539750  0.69383250  0.50834200  1
  O  O2491  1  0.80539750  0.69383250  0.75834200  1
  O  O2492  1  0.80539750  0.94383250  0.00834200  1
  O  O2493  1  0.80539750  0.94383250  0.25834200  1
  O  O2494  1  0.80539750  0.94383250  0.50834200  1
  O  O2495  1  0.80539750  0.94383250  0.75834200  1
  O  O2496  1  0.05616750  0.11156500  0.00834200  1
  O  O2497  1  0.05616750  0.11156500  0.25834200  1
  O  O2498  1  0.05616750  0.11156500  0.50834200  1
  O  O2499  1  0.05616750  0.11156500  0.75834200  1
  O  O2500  1  0.05616750  0.36156500  0.00834200  1
  O  O2501  1  0.05616750  0.36156500  0.25834200  1
  O  O2502  1  0.05616750  0.36156500  0.50834200  1
  O  O2503  1  0.05616750  0.36156500  0.75834200  1
  O  O2504  1  0.05616750  0.61156500  0.00834200  1
  O  O2505  1  0.05616750  0.61156500  0.25834200  1
  O  O2506  1  0.05616750  0.61156500  0.50834200  1
  O  O2507  1  0.05616750  0.61156500  0.75834200  1
  O  O2508  1  0.05616750  0.86156500  0.00834200  1
  O  O2509  1  0.05616750  0.86156500  0.25834200  1
  O  O2510  1  0.05616750  0.86156500  0.50834200  1
  O  O2511  1  0.05616750  0.86156500  0.75834200  1
  O  O2512  1  0.30616750  0.11156500  0.00834200  1
  O  O2513  1  0.30616750  0.11156500  0.25834200  1
  O  O2514  1  0.30616750  0.11156500  0.50834200  1
  O  O2515  1  0.30616750  0.11156500  0.75834200  1
  O  O2516  1  0.30616750  0.36156500  0.00834200  1
  O  O2517  1  0.30616750  0.36156500  0.25834200  1
  O  O2518  1  0.30616750  0.36156500  0.50834200  1
  O  O2519  1  0.30616750  0.36156500  0.75834200  1
  O  O2520  1  0.30616750  0.61156500  0.00834200  1
  O  O2521  1  0.30616750  0.61156500  0.25834200  1
  O  O2522  1  0.30616750  0.61156500  0.50834200  1
  O  O2523  1  0.30616750  0.61156500  0.75834200  1
  O  O2524  1  0.30616750  0.86156500  0.00834200  1
  O  O2525  1  0.30616750  0.86156500  0.25834200  1
  O  O2526  1  0.30616750  0.86156500  0.50834200  1
  O  O2527  1  0.30616750  0.86156500  0.75834200  1
  O  O2528  1  0.55616750  0.11156500  0.00834200  1
  O  O2529  1  0.55616750  0.11156500  0.25834200  1
  O  O2530  1  0.55616750  0.11156500  0.50834200  1
  O  O2531  1  0.55616750  0.11156500  0.75834200  1
  O  O2532  1  0.55616750  0.36156500  0.00834200  1
  O  O2533  1  0.55616750  0.36156500  0.25834200  1
  O  O2534  1  0.55616750  0.36156500  0.50834200  1
  O  O2535  1  0.55616750  0.36156500  0.75834200  1
  O  O2536  1  0.55616750  0.61156500  0.00834200  1
  O  O2537  1  0.55616750  0.61156500  0.25834200  1
  O  O2538  1  0.55616750  0.61156500  0.50834200  1
  O  O2539  1  0.55616750  0.61156500  0.75834200  1
  O  O2540  1  0.55616750  0.86156500  0.00834200  1
  O  O2541  1  0.55616750  0.86156500  0.25834200  1
  O  O2542  1  0.55616750  0.86156500  0.50834200  1
  O  O2543  1  0.55616750  0.86156500  0.75834200  1
  O  O2544  1  0.80616750  0.11156500  0.00834200  1
  O  O2545  1  0.80616750  0.11156500  0.25834200  1
  O  O2546  1  0.80616750  0.11156500  0.50834200  1
  O  O2547  1  0.80616750  0.11156500  0.75834200  1
  O  O2548  1  0.80616750  0.36156500  0.00834200  1
  O  O2549  1  0.80616750  0.36156500  0.25834200  1
  O  O2550  1  0.80616750  0.36156500  0.50834200  1
  O  O2551  1  0.80616750  0.36156500  0.75834200  1
  O  O2552  1  0.80616750  0.61156500  0.00834200  1
  O  O2553  1  0.80616750  0.61156500  0.25834200  1
  O  O2554  1  0.80616750  0.61156500  0.50834200  1
  O  O2555  1  0.80616750  0.61156500  0.75834200  1
  O  O2556  1  0.80616750  0.86156500  0.00834200  1
  O  O2557  1  0.80616750  0.86156500  0.25834200  1
  O  O2558  1  0.80616750  0.86156500  0.50834200  1
  O  O2559  1  0.80616750  0.86156500  0.75834200  1
  O  O2560  1  1.00000000  0.04819600  0.06627350  1
  O  O2561  1  1.00000000  0.04819600  0.31627350  1
  O  O2562  1  1.00000000  0.04819600  0.56627350  1
  O  O2563  1  1.00000000  0.04819600  0.81627350  1
  O  O2564  1  1.00000000  0.29819600  0.06627350  1
  O  O2565  1  1.00000000  0.29819600  0.31627350  1
  O  O2566  1  1.00000000  0.29819600  0.56627350  1
  O  O2567  1  1.00000000  0.29819600  0.81627350  1
  O  O2568  1  1.00000000  0.54819600  0.06627350  1
  O  O2569  1  1.00000000  0.54819600  0.31627350  1
  O  O2570  1  1.00000000  0.54819600  0.56627350  1
  O  O2571  1  1.00000000  0.54819600  0.81627350  1
  O  O2572  1  1.00000000  0.79819600  0.06627350  1
  O  O2573  1  1.00000000  0.79819600  0.31627350  1
  O  O2574  1  1.00000000  0.79819600  0.56627350  1
  O  O2575  1  1.00000000  0.79819600  0.81627350  1
  O  O2576  1  0.25000000  0.04819600  0.06627350  1
  O  O2577  1  0.25000000  0.04819600  0.31627350  1
  O  O2578  1  0.25000000  0.04819600  0.56627350  1
  O  O2579  1  0.25000000  0.04819600  0.81627350  1
  O  O2580  1  0.25000000  0.29819600  0.06627350  1
  O  O2581  1  0.25000000  0.29819600  0.31627350  1
  O  O2582  1  0.25000000  0.29819600  0.56627350  1
  O  O2583  1  0.25000000  0.29819600  0.81627350  1
  O  O2584  1  0.25000000  0.54819600  0.06627350  1
  O  O2585  1  0.25000000  0.54819600  0.31627350  1
  O  O2586  1  0.25000000  0.54819600  0.56627350  1
  O  O2587  1  0.25000000  0.54819600  0.81627350  1
  O  O2588  1  0.25000000  0.79819600  0.06627350  1
  O  O2589  1  0.25000000  0.79819600  0.31627350  1
  O  O2590  1  0.25000000  0.79819600  0.56627350  1
  O  O2591  1  0.25000000  0.79819600  0.81627350  1
  O  O2592  1  0.50000000  0.04819600  0.06627350  1
  O  O2593  1  0.50000000  0.04819600  0.31627350  1
  O  O2594  1  0.50000000  0.04819600  0.56627350  1
  O  O2595  1  0.50000000  0.04819600  0.81627350  1
  O  O2596  1  0.50000000  0.29819600  0.06627350  1
  O  O2597  1  0.50000000  0.29819600  0.31627350  1
  O  O2598  1  0.50000000  0.29819600  0.56627350  1
  O  O2599  1  0.50000000  0.29819600  0.81627350  1
  O  O2600  1  0.50000000  0.54819600  0.06627350  1
  O  O2601  1  0.50000000  0.54819600  0.31627350  1
  O  O2602  1  0.50000000  0.54819600  0.56627350  1
  O  O2603  1  0.50000000  0.54819600  0.81627350  1
  O  O2604  1  0.50000000  0.79819600  0.06627350  1
  O  O2605  1  0.50000000  0.79819600  0.31627350  1
  O  O2606  1  0.50000000  0.79819600  0.56627350  1
  O  O2607  1  0.50000000  0.79819600  0.81627350  1
  O  O2608  1  0.75000000  0.04819600  0.06627350  1
  O  O2609  1  0.75000000  0.04819600  0.31627350  1
  O  O2610  1  0.75000000  0.04819600  0.56627350  1
  O  O2611  1  0.75000000  0.04819600  0.81627350  1
  O  O2612  1  0.75000000  0.29819600  0.06627350  1
  O  O2613  1  0.75000000  0.29819600  0.31627350  1
  O  O2614  1  0.75000000  0.29819600  0.56627350  1
  O  O2615  1  0.75000000  0.29819600  0.81627350  1
  O  O2616  1  0.75000000  0.54819600  0.06627350  1
  O  O2617  1  0.75000000  0.54819600  0.31627350  1
  O  O2618  1  0.75000000  0.54819600  0.56627350  1
  O  O2619  1  0.75000000  0.54819600  0.81627350  1
  O  O2620  1  0.75000000  0.79819600  0.06627350  1
  O  O2621  1  0.75000000  0.79819600  0.31627350  1
  O  O2622  1  0.75000000  0.79819600  0.56627350  1
  O  O2623  1  0.75000000  0.79819600  0.81627350  1
  O  O2624  1  0.13843500  0.19383250  0.13334200  1
  O  O2625  1  0.13843500  0.19383250  0.38334200  1
  O  O2626  1  0.13843500  0.19383250  0.63334200  1
  O  O2627  1  0.13843500  0.19383250  0.88334200  1
  O  O2628  1  0.13843500  0.44383250  0.13334200  1
  O  O2629  1  0.13843500  0.44383250  0.38334200  1
  O  O2630  1  0.13843500  0.44383250  0.63334200  1
  O  O2631  1  0.13843500  0.44383250  0.88334200  1
  O  O2632  1  0.13843500  0.69383250  0.13334200  1
  O  O2633  1  0.13843500  0.69383250  0.38334200  1
  O  O2634  1  0.13843500  0.69383250  0.63334200  1
  O  O2635  1  0.13843500  0.69383250  0.88334200  1
  O  O2636  1  0.13843500  0.94383250  0.13334200  1
  O  O2637  1  0.13843500  0.94383250  0.38334200  1
  O  O2638  1  0.13843500  0.94383250  0.63334200  1
  O  O2639  1  0.13843500  0.94383250  0.88334200  1
  O  O2640  1  0.38843500  0.19383250  0.13334200  1
  O  O2641  1  0.38843500  0.19383250  0.38334200  1
  O  O2642  1  0.38843500  0.19383250  0.63334200  1
  O  O2643  1  0.38843500  0.19383250  0.88334200  1
  O  O2644  1  0.38843500  0.44383250  0.13334200  1
  O  O2645  1  0.38843500  0.44383250  0.38334200  1
  O  O2646  1  0.38843500  0.44383250  0.63334200  1
  O  O2647  1  0.38843500  0.44383250  0.88334200  1
  O  O2648  1  0.38843500  0.69383250  0.13334200  1
  O  O2649  1  0.38843500  0.69383250  0.38334200  1
  O  O2650  1  0.38843500  0.69383250  0.63334200  1
  O  O2651  1  0.38843500  0.69383250  0.88334200  1
  O  O2652  1  0.38843500  0.94383250  0.13334200  1
  O  O2653  1  0.38843500  0.94383250  0.38334200  1
  O  O2654  1  0.38843500  0.94383250  0.63334200  1
  O  O2655  1  0.38843500  0.94383250  0.88334200  1
  O  O2656  1  0.63843500  0.19383250  0.13334200  1
  O  O2657  1  0.63843500  0.19383250  0.38334200  1
  O  O2658  1  0.63843500  0.19383250  0.63334200  1
  O  O2659  1  0.63843500  0.19383250  0.88334200  1
  O  O2660  1  0.63843500  0.44383250  0.13334200  1
  O  O2661  1  0.63843500  0.44383250  0.38334200  1
  O  O2662  1  0.63843500  0.44383250  0.63334200  1
  O  O2663  1  0.63843500  0.44383250  0.88334200  1
  O  O2664  1  0.63843500  0.69383250  0.13334200  1
  O  O2665  1  0.63843500  0.69383250  0.38334200  1
  O  O2666  1  0.63843500  0.69383250  0.63334200  1
  O  O2667  1  0.63843500  0.69383250  0.88334200  1
  O  O2668  1  0.63843500  0.94383250  0.13334200  1
  O  O2669  1  0.63843500  0.94383250  0.38334200  1
  O  O2670  1  0.63843500  0.94383250  0.63334200  1
  O  O2671  1  0.63843500  0.94383250  0.88334200  1
  O  O2672  1  0.88843500  0.19383250  0.13334200  1
  O  O2673  1  0.88843500  0.19383250  0.38334200  1
  O  O2674  1  0.88843500  0.19383250  0.63334200  1
  O  O2675  1  0.88843500  0.19383250  0.88334200  1
  O  O2676  1  0.88843500  0.44383250  0.13334200  1
  O  O2677  1  0.88843500  0.44383250  0.38334200  1
  O  O2678  1  0.88843500  0.44383250  0.63334200  1
  O  O2679  1  0.88843500  0.44383250  0.88334200  1
  O  O2680  1  0.88843500  0.69383250  0.13334200  1
  O  O2681  1  0.88843500  0.69383250  0.38334200  1
  O  O2682  1  0.88843500  0.69383250  0.63334200  1
  O  O2683  1  0.88843500  0.69383250  0.88334200  1
  O  O2684  1  0.88843500  0.94383250  0.13334200  1
  O  O2685  1  0.88843500  0.94383250  0.38334200  1
  O  O2686  1  0.88843500  0.94383250  0.63334200  1
  O  O2687  1  0.88843500  0.94383250  0.88334200  1
  O  O2688  1  0.20180400  0.20180400  0.06627350  1
  O  O2689  1  0.20180400  0.20180400  0.31627350  1
  O  O2690  1  0.20180400  0.20180400  0.56627350  1
  O  O2691  1  0.20180400  0.20180400  0.81627350  1
  O  O2692  1  0.20180400  0.45180400  0.06627350  1
  O  O2693  1  0.20180400  0.45180400  0.31627350  1
  O  O2694  1  0.20180400  0.45180400  0.56627350  1
  O  O2695  1  0.20180400  0.45180400  0.81627350  1
  O  O2696  1  0.20180400  0.70180400  0.06627350  1
  O  O2697  1  0.20180400  0.70180400  0.31627350  1
  O  O2698  1  0.20180400  0.70180400  0.56627350  1
  O  O2699  1  0.20180400  0.70180400  0.81627350  1
  O  O2700  1  0.20180400  0.95180400  0.06627350  1
  O  O2701  1  0.20180400  0.95180400  0.31627350  1
  O  O2702  1  0.20180400  0.95180400  0.56627350  1
  O  O2703  1  0.20180400  0.95180400  0.81627350  1
  O  O2704  1  0.45180400  0.20180400  0.06627350  1
  O  O2705  1  0.45180400  0.20180400  0.31627350  1
  O  O2706  1  0.45180400  0.20180400  0.56627350  1
  O  O2707  1  0.45180400  0.20180400  0.81627350  1
  O  O2708  1  0.45180400  0.45180400  0.06627350  1
  O  O2709  1  0.45180400  0.45180400  0.31627350  1
  O  O2710  1  0.45180400  0.45180400  0.56627350  1
  O  O2711  1  0.45180400  0.45180400  0.81627350  1
  O  O2712  1  0.45180400  0.70180400  0.06627350  1
  O  O2713  1  0.45180400  0.70180400  0.31627350  1
  O  O2714  1  0.45180400  0.70180400  0.56627350  1
  O  O2715  1  0.45180400  0.70180400  0.81627350  1
  O  O2716  1  0.45180400  0.95180400  0.06627350  1
  O  O2717  1  0.45180400  0.95180400  0.31627350  1
  O  O2718  1  0.45180400  0.95180400  0.56627350  1
  O  O2719  1  0.45180400  0.95180400  0.81627350  1
  O  O2720  1  0.70180400  0.20180400  0.06627350  1
  O  O2721  1  0.70180400  0.20180400  0.31627350  1
  O  O2722  1  0.70180400  0.20180400  0.56627350  1
  O  O2723  1  0.70180400  0.20180400  0.81627350  1
  O  O2724  1  0.70180400  0.45180400  0.06627350  1
  O  O2725  1  0.70180400  0.45180400  0.31627350  1
  O  O2726  1  0.70180400  0.45180400  0.56627350  1
  O  O2727  1  0.70180400  0.45180400  0.81627350  1
  O  O2728  1  0.70180400  0.70180400  0.06627350  1
  O  O2729  1  0.70180400  0.70180400  0.31627350  1
  O  O2730  1  0.70180400  0.70180400  0.56627350  1
  O  O2731  1  0.70180400  0.70180400  0.81627350  1
  O  O2732  1  0.70180400  0.95180400  0.06627350  1
  O  O2733  1  0.70180400  0.95180400  0.31627350  1
  O  O2734  1  0.70180400  0.95180400  0.56627350  1
  O  O2735  1  0.70180400  0.95180400  0.81627350  1
  O  O2736  1  0.95180400  0.20180400  0.06627350  1
  O  O2737  1  0.95180400  0.20180400  0.31627350  1
  O  O2738  1  0.95180400  0.20180400  0.56627350  1
  O  O2739  1  0.95180400  0.20180400  0.81627350  1
  O  O2740  1  0.95180400  0.45180400  0.06627350  1
  O  O2741  1  0.95180400  0.45180400  0.31627350  1
  O  O2742  1  0.95180400  0.45180400  0.56627350  1
  O  O2743  1  0.95180400  0.45180400  0.81627350  1
  O  O2744  1  0.95180400  0.70180400  0.06627350  1
  O  O2745  1  0.95180400  0.70180400  0.31627350  1
  O  O2746  1  0.95180400  0.70180400  0.56627350  1
  O  O2747  1  0.95180400  0.70180400  0.81627350  1
  O  O2748  1  0.95180400  0.95180400  0.06627350  1
  O  O2749  1  0.95180400  0.95180400  0.31627350  1
  O  O2750  1  0.95180400  0.95180400  0.56627350  1
  O  O2751  1  0.95180400  0.95180400  0.81627350  1
  O  O2752  1  0.00000000  0.00000000  0.11732350  1
  O  O2753  1  0.00000000  0.00000000  0.36732350  1
  O  O2754  1  0.00000000  0.00000000  0.61732350  1
  O  O2755  1  0.00000000  0.00000000  0.86732350  1
  O  O2756  1  1.00000000  0.25000000  0.11732350  1
  O  O2757  1  1.00000000  0.25000000  0.36732350  1
  O  O2758  1  1.00000000  0.25000000  0.61732350  1
  O  O2759  1  1.00000000  0.25000000  0.86732350  1
  O  O2760  1  1.00000000  0.50000000  0.11732350  1
  O  O2761  1  1.00000000  0.50000000  0.36732350  1
  O  O2762  1  1.00000000  0.50000000  0.61732350  1
  O  O2763  1  1.00000000  0.50000000  0.86732350  1
  O  O2764  1  1.00000000  0.75000000  0.11732350  1
  O  O2765  1  1.00000000  0.75000000  0.36732350  1
  O  O2766  1  1.00000000  0.75000000  0.61732350  1
  O  O2767  1  1.00000000  0.75000000  0.86732350  1
  O  O2768  1  0.25000000  1.00000000  0.11732350  1
  O  O2769  1  0.25000000  1.00000000  0.36732350  1
  O  O2770  1  0.25000000  1.00000000  0.61732350  1
  O  O2771  1  0.25000000  1.00000000  0.86732350  1
  O  O2772  1  0.25000000  0.25000000  0.11732350  1
  O  O2773  1  0.25000000  0.25000000  0.36732350  1
  O  O2774  1  0.25000000  0.25000000  0.61732350  1
  O  O2775  1  0.25000000  0.25000000  0.86732350  1
  O  O2776  1  0.25000000  0.50000000  0.11732350  1
  O  O2777  1  0.25000000  0.50000000  0.36732350  1
  O  O2778  1  0.25000000  0.50000000  0.61732350  1
  O  O2779  1  0.25000000  0.50000000  0.86732350  1
  O  O2780  1  0.25000000  0.75000000  0.11732350  1
  O  O2781  1  0.25000000  0.75000000  0.36732350  1
  O  O2782  1  0.25000000  0.75000000  0.61732350  1
  O  O2783  1  0.25000000  0.75000000  0.86732350  1
  O  O2784  1  0.50000000  1.00000000  0.11732350  1
  O  O2785  1  0.50000000  1.00000000  0.36732350  1
  O  O2786  1  0.50000000  1.00000000  0.61732350  1
  O  O2787  1  0.50000000  1.00000000  0.86732350  1
  O  O2788  1  0.50000000  0.25000000  0.11732350  1
  O  O2789  1  0.50000000  0.25000000  0.36732350  1
  O  O2790  1  0.50000000  0.25000000  0.61732350  1
  O  O2791  1  0.50000000  0.25000000  0.86732350  1
  O  O2792  1  0.50000000  0.50000000  0.11732350  1
  O  O2793  1  0.50000000  0.50000000  0.36732350  1
  O  O2794  1  0.50000000  0.50000000  0.61732350  1
  O  O2795  1  0.50000000  0.50000000  0.86732350  1
  O  O2796  1  0.50000000  0.75000000  0.11732350  1
  O  O2797  1  0.50000000  0.75000000  0.36732350  1
  O  O2798  1  0.50000000  0.75000000  0.61732350  1
  O  O2799  1  0.50000000  0.75000000  0.86732350  1
  O  O2800  1  0.75000000  1.00000000  0.11732350  1
  O  O2801  1  0.75000000  1.00000000  0.36732350  1
  O  O2802  1  0.75000000  1.00000000  0.61732350  1
  O  O2803  1  0.75000000  1.00000000  0.86732350  1
  O  O2804  1  0.75000000  0.25000000  0.11732350  1
  O  O2805  1  0.75000000  0.25000000  0.36732350  1
  O  O2806  1  0.75000000  0.25000000  0.61732350  1
  O  O2807  1  0.75000000  0.25000000  0.86732350  1
  O  O2808  1  0.75000000  0.50000000  0.11732350  1
  O  O2809  1  0.75000000  0.50000000  0.36732350  1
  O  O2810  1  0.75000000  0.50000000  0.61732350  1
  O  O2811  1  0.75000000  0.50000000  0.86732350  1
  O  O2812  1  0.75000000  0.75000000  0.11732350  1
  O  O2813  1  0.75000000  0.75000000  0.36732350  1
  O  O2814  1  0.75000000  0.75000000  0.61732350  1
  O  O2815  1  0.75000000  0.75000000  0.86732350  1
  O  O2816  1  0.19460250  0.05616750  0.13334200  1
  O  O2817  1  0.19460250  0.05616750  0.38334200  1
  O  O2818  1  0.19460250  0.05616750  0.63334200  1
  O  O2819  1  0.19460250  0.05616750  0.88334200  1
  O  O2820  1  0.19460250  0.30616750  0.13334200  1
  O  O2821  1  0.19460250  0.30616750  0.38334200  1
  O  O2822  1  0.19460250  0.30616750  0.63334200  1
  O  O2823  1  0.19460250  0.30616750  0.88334200  1
  O  O2824  1  0.19460250  0.55616750  0.13334200  1
  O  O2825  1  0.19460250  0.55616750  0.38334200  1
  O  O2826  1  0.19460250  0.55616750  0.63334200  1
  O  O2827  1  0.19460250  0.55616750  0.88334200  1
  O  O2828  1  0.19460250  0.80616750  0.13334200  1
  O  O2829  1  0.19460250  0.80616750  0.38334200  1
  O  O2830  1  0.19460250  0.80616750  0.63334200  1
  O  O2831  1  0.19460250  0.80616750  0.88334200  1
  O  O2832  1  0.44460250  0.05616750  0.13334200  1
  O  O2833  1  0.44460250  0.05616750  0.38334200  1
  O  O2834  1  0.44460250  0.05616750  0.63334200  1
  O  O2835  1  0.44460250  0.05616750  0.88334200  1
  O  O2836  1  0.44460250  0.30616750  0.13334200  1
  O  O2837  1  0.44460250  0.30616750  0.38334200  1
  O  O2838  1  0.44460250  0.30616750  0.63334200  1
  O  O2839  1  0.44460250  0.30616750  0.88334200  1
  O  O2840  1  0.44460250  0.55616750  0.13334200  1
  O  O2841  1  0.44460250  0.55616750  0.38334200  1
  O  O2842  1  0.44460250  0.55616750  0.63334200  1
  O  O2843  1  0.44460250  0.55616750  0.88334200  1
  O  O2844  1  0.44460250  0.80616750  0.13334200  1
  O  O2845  1  0.44460250  0.80616750  0.38334200  1
  O  O2846  1  0.44460250  0.80616750  0.63334200  1
  O  O2847  1  0.44460250  0.80616750  0.88334200  1
  O  O2848  1  0.69460250  0.05616750  0.13334200  1
  O  O2849  1  0.69460250  0.05616750  0.38334200  1
  O  O2850  1  0.69460250  0.05616750  0.63334200  1
  O  O2851  1  0.69460250  0.05616750  0.88334200  1
  O  O2852  1  0.69460250  0.30616750  0.13334200  1
  O  O2853  1  0.69460250  0.30616750  0.38334200  1
  O  O2854  1  0.69460250  0.30616750  0.63334200  1
  O  O2855  1  0.69460250  0.30616750  0.88334200  1
  O  O2856  1  0.69460250  0.55616750  0.13334200  1
  O  O2857  1  0.69460250  0.55616750  0.38334200  1
  O  O2858  1  0.69460250  0.55616750  0.63334200  1
  O  O2859  1  0.69460250  0.55616750  0.88334200  1
  O  O2860  1  0.69460250  0.80616750  0.13334200  1
  O  O2861  1  0.69460250  0.80616750  0.38334200  1
  O  O2862  1  0.69460250  0.80616750  0.63334200  1
  O  O2863  1  0.69460250  0.80616750  0.88334200  1
  O  O2864  1  0.94460250  0.05616750  0.13334200  1
  O  O2865  1  0.94460250  0.05616750  0.38334200  1
  O  O2866  1  0.94460250  0.05616750  0.63334200  1
  O  O2867  1  0.94460250  0.05616750  0.88334200  1
  O  O2868  1  0.94460250  0.30616750  0.13334200  1
  O  O2869  1  0.94460250  0.30616750  0.38334200  1
  O  O2870  1  0.94460250  0.30616750  0.63334200  1
  O  O2871  1  0.94460250  0.30616750  0.88334200  1
  O  O2872  1  0.94460250  0.55616750  0.13334200  1
  O  O2873  1  0.94460250  0.55616750  0.38334200  1
  O  O2874  1  0.94460250  0.55616750  0.63334200  1
  O  O2875  1  0.94460250  0.55616750  0.88334200  1
  O  O2876  1  0.94460250  0.80616750  0.13334200  1
  O  O2877  1  0.94460250  0.80616750  0.38334200  1
  O  O2878  1  0.94460250  0.80616750  0.63334200  1
  O  O2879  1  0.94460250  0.80616750  0.88334200  1
  O  O2880  1  0.08333325  0.16666675  0.20739000  1
  O  O2881  1  0.08333325  0.16666675  0.45739000  1
  O  O2882  1  0.08333325  0.16666675  0.70739000  1
  O  O2883  1  0.08333325  0.16666675  0.95739000  1
  O  O2884  1  0.08333325  0.41666675  0.20739000  1
  O  O2885  1  0.08333325  0.41666675  0.45739000  1
  O  O2886  1  0.08333325  0.41666675  0.70739000  1
  O  O2887  1  0.08333325  0.41666675  0.95739000  1
  O  O2888  1  0.08333325  0.66666675  0.20739000  1
  O  O2889  1  0.08333325  0.66666675  0.45739000  1
  O  O2890  1  0.08333325  0.66666675  0.70739000  1
  O  O2891  1  0.08333325  0.66666675  0.95739000  1
  O  O2892  1  0.08333325  0.91666675  0.20739000  1
  O  O2893  1  0.08333325  0.91666675  0.45739000  1
  O  O2894  1  0.08333325  0.91666675  0.70739000  1
  O  O2895  1  0.08333325  0.91666675  0.95739000  1
  O  O2896  1  0.33333325  0.16666675  0.20739000  1
  O  O2897  1  0.33333325  0.16666675  0.45739000  1
  O  O2898  1  0.33333325  0.16666675  0.70739000  1
  O  O2899  1  0.33333325  0.16666675  0.95739000  1
  O  O2900  1  0.33333325  0.41666675  0.20739000  1
  O  O2901  1  0.33333325  0.41666675  0.45739000  1
  O  O2902  1  0.33333325  0.41666675  0.70739000  1
  O  O2903  1  0.33333325  0.41666675  0.95739000  1
  O  O2904  1  0.33333325  0.66666675  0.20739000  1
  O  O2905  1  0.33333325  0.66666675  0.45739000  1
  O  O2906  1  0.33333325  0.66666675  0.70739000  1
  O  O2907  1  0.33333325  0.66666675  0.95739000  1
  O  O2908  1  0.33333325  0.91666675  0.20739000  1
  O  O2909  1  0.33333325  0.91666675  0.45739000  1
  O  O2910  1  0.33333325  0.91666675  0.70739000  1
  O  O2911  1  0.33333325  0.91666675  0.95739000  1
  O  O2912  1  0.58333325  0.16666675  0.20739000  1
  O  O2913  1  0.58333325  0.16666675  0.45739000  1
  O  O2914  1  0.58333325  0.16666675  0.70739000  1
  O  O2915  1  0.58333325  0.16666675  0.95739000  1
  O  O2916  1  0.58333325  0.41666675  0.20739000  1
  O  O2917  1  0.58333325  0.41666675  0.45739000  1
  O  O2918  1  0.58333325  0.41666675  0.70739000  1
  O  O2919  1  0.58333325  0.41666675  0.95739000  1
  O  O2920  1  0.58333325  0.66666675  0.20739000  1
  O  O2921  1  0.58333325  0.66666675  0.45739000  1
  O  O2922  1  0.58333325  0.66666675  0.70739000  1
  O  O2923  1  0.58333325  0.66666675  0.95739000  1
  O  O2924  1  0.58333325  0.91666675  0.20739000  1
  O  O2925  1  0.58333325  0.91666675  0.45739000  1
  O  O2926  1  0.58333325  0.91666675  0.70739000  1
  O  O2927  1  0.58333325  0.91666675  0.95739000  1
  O  O2928  1  0.83333325  0.16666675  0.20739000  1
  O  O2929  1  0.83333325  0.16666675  0.45739000  1
  O  O2930  1  0.83333325  0.16666675  0.70739000  1
  O  O2931  1  0.83333325  0.16666675  0.95739000  1
  O  O2932  1  0.83333325  0.41666675  0.20739000  1
  O  O2933  1  0.83333325  0.41666675  0.45739000  1
  O  O2934  1  0.83333325  0.41666675  0.70739000  1
  O  O2935  1  0.83333325  0.41666675  0.95739000  1
  O  O2936  1  0.83333325  0.66666675  0.20739000  1
  O  O2937  1  0.83333325  0.66666675  0.45739000  1
  O  O2938  1  0.83333325  0.66666675  0.70739000  1
  O  O2939  1  0.83333325  0.66666675  0.95739000  1
  O  O2940  1  0.83333325  0.91666675  0.20739000  1
  O  O2941  1  0.83333325  0.91666675  0.45739000  1
  O  O2942  1  0.83333325  0.91666675  0.70739000  1
  O  O2943  1  0.83333325  0.91666675  0.95739000  1
  O  O2944  1  0.16666675  0.08333325  0.08239000  1
  O  O2945  1  0.16666675  0.08333325  0.33239000  1
  O  O2946  1  0.16666675  0.08333325  0.58239000  1
  O  O2947  1  0.16666675  0.08333325  0.83239000  1
  O  O2948  1  0.16666675  0.33333325  0.08239000  1
  O  O2949  1  0.16666675  0.33333325  0.33239000  1
  O  O2950  1  0.16666675  0.33333325  0.58239000  1
  O  O2951  1  0.16666675  0.33333325  0.83239000  1
  O  O2952  1  0.16666675  0.58333325  0.08239000  1
  O  O2953  1  0.16666675  0.58333325  0.33239000  1
  O  O2954  1  0.16666675  0.58333325  0.58239000  1
  O  O2955  1  0.16666675  0.58333325  0.83239000  1
  O  O2956  1  0.16666675  0.83333325  0.08239000  1
  O  O2957  1  0.16666675  0.83333325  0.33239000  1
  O  O2958  1  0.16666675  0.83333325  0.58239000  1
  O  O2959  1  0.16666675  0.83333325  0.83239000  1
  O  O2960  1  0.41666675  0.08333325  0.08239000  1
  O  O2961  1  0.41666675  0.08333325  0.33239000  1
  O  O2962  1  0.41666675  0.08333325  0.58239000  1
  O  O2963  1  0.41666675  0.08333325  0.83239000  1
  O  O2964  1  0.41666675  0.33333325  0.08239000  1
  O  O2965  1  0.41666675  0.33333325  0.33239000  1
  O  O2966  1  0.41666675  0.33333325  0.58239000  1
  O  O2967  1  0.41666675  0.33333325  0.83239000  1
  O  O2968  1  0.41666675  0.58333325  0.08239000  1
  O  O2969  1  0.41666675  0.58333325  0.33239000  1
  O  O2970  1  0.41666675  0.58333325  0.58239000  1
  O  O2971  1  0.41666675  0.58333325  0.83239000  1
  O  O2972  1  0.41666675  0.83333325  0.08239000  1
  O  O2973  1  0.41666675  0.83333325  0.33239000  1
  O  O2974  1  0.41666675  0.83333325  0.58239000  1
  O  O2975  1  0.41666675  0.83333325  0.83239000  1
  O  O2976  1  0.66666675  0.08333325  0.08239000  1
  O  O2977  1  0.66666675  0.08333325  0.33239000  1
  O  O2978  1  0.66666675  0.08333325  0.58239000  1
  O  O2979  1  0.66666675  0.08333325  0.83239000  1
  O  O2980  1  0.66666675  0.33333325  0.08239000  1
  O  O2981  1  0.66666675  0.33333325  0.33239000  1
  O  O2982  1  0.66666675  0.33333325  0.58239000  1
  O  O2983  1  0.66666675  0.33333325  0.83239000  1
  O  O2984  1  0.66666675  0.58333325  0.08239000  1
  O  O2985  1  0.66666675  0.58333325  0.33239000  1
  O  O2986  1  0.66666675  0.58333325  0.58239000  1
  O  O2987  1  0.66666675  0.58333325  0.83239000  1
  O  O2988  1  0.66666675  0.83333325  0.08239000  1
  O  O2989  1  0.66666675  0.83333325  0.33239000  1
  O  O2990  1  0.66666675  0.83333325  0.58239000  1
  O  O2991  1  0.66666675  0.83333325  0.83239000  1
  O  O2992  1  0.91666675  0.08333325  0.08239000  1
  O  O2993  1  0.91666675  0.08333325  0.33239000  1
  O  O2994  1  0.91666675  0.08333325  0.58239000  1
  O  O2995  1  0.91666675  0.08333325  0.83239000  1
  O  O2996  1  0.91666675  0.33333325  0.08239000  1
  O  O2997  1  0.91666675  0.33333325  0.33239000  1
  O  O2998  1  0.91666675  0.33333325  0.58239000  1
  O  O2999  1  0.91666675  0.33333325  0.83239000  1
  O  O3000  1  0.91666675  0.58333325  0.08239000  1
  O  O3001  1  0.91666675  0.58333325  0.33239000  1
  O  O3002  1  0.91666675  0.58333325  0.58239000  1
  O  O3003  1  0.91666675  0.58333325  0.83239000  1
  O  O3004  1  0.91666675  0.83333325  0.08239000  1
  O  O3005  1  0.91666675  0.83333325  0.33239000  1
  O  O3006  1  0.91666675  0.83333325  0.58239000  1
  O  O3007  1  0.91666675  0.83333325  0.83239000  1
  O  O3008  1  0.13843500  0.19460250  0.00834200  1
  O  O3009  1  0.13843500  0.19460250  0.25834200  1
  O  O3010  1  0.13843500  0.19460250  0.50834200  1
  O  O3011  1  0.13843500  0.19460250  0.75834200  1
  O  O3012  1  0.13843500  0.44460250  0.00834200  1
  O  O3013  1  0.13843500  0.44460250  0.25834200  1
  O  O3014  1  0.13843500  0.44460250  0.50834200  1
  O  O3015  1  0.13843500  0.44460250  0.75834200  1
  O  O3016  1  0.13843500  0.69460250  0.00834200  1
  O  O3017  1  0.13843500  0.69460250  0.25834200  1
  O  O3018  1  0.13843500  0.69460250  0.50834200  1
  O  O3019  1  0.13843500  0.69460250  0.75834200  1
  O  O3020  1  0.13843500  0.94460250  0.00834200  1
  O  O3021  1  0.13843500  0.94460250  0.25834200  1
  O  O3022  1  0.13843500  0.94460250  0.50834200  1
  O  O3023  1  0.13843500  0.94460250  0.75834200  1
  O  O3024  1  0.38843500  0.19460250  0.00834200  1
  O  O3025  1  0.38843500  0.19460250  0.25834200  1
  O  O3026  1  0.38843500  0.19460250  0.50834200  1
  O  O3027  1  0.38843500  0.19460250  0.75834200  1
  O  O3028  1  0.38843500  0.44460250  0.00834200  1
  O  O3029  1  0.38843500  0.44460250  0.25834200  1
  O  O3030  1  0.38843500  0.44460250  0.50834200  1
  O  O3031  1  0.38843500  0.44460250  0.75834200  1
  O  O3032  1  0.38843500  0.69460250  0.00834200  1
  O  O3033  1  0.38843500  0.69460250  0.25834200  1
  O  O3034  1  0.38843500  0.69460250  0.50834200  1
  O  O3035  1  0.38843500  0.69460250  0.75834200  1
  O  O3036  1  0.38843500  0.94460250  0.00834200  1
  O  O3037  1  0.38843500  0.94460250  0.25834200  1
  O  O3038  1  0.38843500  0.94460250  0.50834200  1
  O  O3039  1  0.38843500  0.94460250  0.75834200  1
  O  O3040  1  0.63843500  0.19460250  0.00834200  1
  O  O3041  1  0.63843500  0.19460250  0.25834200  1
  O  O3042  1  0.63843500  0.19460250  0.50834200  1
  O  O3043  1  0.63843500  0.19460250  0.75834200  1
  O  O3044  1  0.63843500  0.44460250  0.00834200  1
  O  O3045  1  0.63843500  0.44460250  0.25834200  1
  O  O3046  1  0.63843500  0.44460250  0.50834200  1
  O  O3047  1  0.63843500  0.44460250  0.75834200  1
  O  O3048  1  0.63843500  0.69460250  0.00834200  1
  O  O3049  1  0.63843500  0.69460250  0.25834200  1
  O  O3050  1  0.63843500  0.69460250  0.50834200  1
  O  O3051  1  0.63843500  0.69460250  0.75834200  1
  O  O3052  1  0.63843500  0.94460250  0.00834200  1
  O  O3053  1  0.63843500  0.94460250  0.25834200  1
  O  O3054  1  0.63843500  0.94460250  0.50834200  1
  O  O3055  1  0.63843500  0.94460250  0.75834200  1
  O  O3056  1  0.88843500  0.19460250  0.00834200  1
  O  O3057  1  0.88843500  0.19460250  0.25834200  1
  O  O3058  1  0.88843500  0.19460250  0.50834200  1
  O  O3059  1  0.88843500  0.19460250  0.75834200  1
  O  O3060  1  0.88843500  0.44460250  0.00834200  1
  O  O3061  1  0.88843500  0.44460250  0.25834200  1
  O  O3062  1  0.88843500  0.44460250  0.50834200  1
  O  O3063  1  0.88843500  0.44460250  0.75834200  1
  O  O3064  1  0.88843500  0.69460250  0.00834200  1
  O  O3065  1  0.88843500  0.69460250  0.25834200  1
  O  O3066  1  0.88843500  0.69460250  0.50834200  1
  O  O3067  1  0.88843500  0.69460250  0.75834200  1
  O  O3068  1  0.88843500  0.94460250  0.00834200  1
  O  O3069  1  0.88843500  0.94460250  0.25834200  1
  O  O3070  1  0.88843500  0.94460250  0.50834200  1
  O  O3071  1  0.88843500  0.94460250  0.75834200  1
