# generated using pymatgen
data_Li2Cr5(Si2O7)2
_symmetry_space_group_name_H-M   'P 1'
_cell_length_a   22.46107792
_cell_length_b   53.85714387
_cell_length_c   32.15262851
_cell_angle_alpha   82.54520228
_cell_angle_beta   91.20726620
_cell_angle_gamma   84.49134799
_symmetry_Int_Tables_number   1
_chemical_formula_structural   Li2Cr5(Si2O7)2
_chemical_formula_sum   'Li256 Cr640 Si512 O1792'
_cell_volume   38365.68118831
_cell_formula_units_Z   128
loop_
 _symmetry_equiv_pos_site_id
 _symmetry_equiv_pos_as_xyz
  1  'x, y, z'
loop_
 _atom_site_type_symbol
 _atom_site_label
 _atom_site_symmetry_multiplicity
 _atom_site_fract_x
 _atom_site_fract_y
 _atom_site_fract_z
 _atom_site_occupancy
  Li  Li0  1  0.04338200  0.01364500  0.10032050  1
  Li  Li1  1  0.04338200  0.01364500  0.35032050  1
  Li  Li2  1  0.04338200  0.01364500  0.60032050  1
  Li  Li3  1  0.04338200  0.01364500  0.85032050  1
  Li  Li4  1  0.04338200  0.26364500  0.10032050  1
  Li  Li5  1  0.04338200  0.26364500  0.35032050  1
  Li  Li6  1  0.04338200  0.26364500  0.60032050  1
  Li  Li7  1  0.04338200  0.26364500  0.85032050  1
  Li  Li8  1  0.04338200  0.51364500  0.10032050  1
  Li  Li9  1  0.04338200  0.51364500  0.35032050  1
  Li  Li10  1  0.04338200  0.51364500  0.60032050  1
  Li  Li11  1  0.04338200  0.51364500  0.85032050  1
  Li  Li12  1  0.04338200  0.76364500  0.10032050  1
  Li  Li13  1  0.04338200  0.76364500  0.35032050  1
  Li  Li14  1  0.04338200  0.76364500  0.60032050  1
  Li  Li15  1  0.04338200  0.76364500  0.85032050  1
  Li  Li16  1  0.29338200  0.01364500  0.10032050  1
  Li  Li17  1  0.29338200  0.01364500  0.35032050  1
  Li  Li18  1  0.29338200  0.01364500  0.60032050  1
  Li  Li19  1  0.29338200  0.01364500  0.85032050  1
  Li  Li20  1  0.29338200  0.26364500  0.10032050  1
  Li  Li21  1  0.29338200  0.26364500  0.35032050  1
  Li  Li22  1  0.29338200  0.26364500  0.60032050  1
  Li  Li23  1  0.29338200  0.26364500  0.85032050  1
  Li  Li24  1  0.29338200  0.51364500  0.10032050  1
  Li  Li25  1  0.29338200  0.51364500  0.35032050  1
  Li  Li26  1  0.29338200  0.51364500  0.60032050  1
  Li  Li27  1  0.29338200  0.51364500  0.85032050  1
  Li  Li28  1  0.29338200  0.76364500  0.10032050  1
  Li  Li29  1  0.29338200  0.76364500  0.35032050  1
  Li  Li30  1  0.29338200  0.76364500  0.60032050  1
  Li  Li31  1  0.29338200  0.76364500  0.85032050  1
  Li  Li32  1  0.54338200  0.01364500  0.10032050  1
  Li  Li33  1  0.54338200  0.01364500  0.35032050  1
  Li  Li34  1  0.54338200  0.01364500  0.60032050  1
  Li  Li35  1  0.54338200  0.01364500  0.85032050  1
  Li  Li36  1  0.54338200  0.26364500  0.10032050  1
  Li  Li37  1  0.54338200  0.26364500  0.35032050  1
  Li  Li38  1  0.54338200  0.26364500  0.60032050  1
  Li  Li39  1  0.54338200  0.26364500  0.85032050  1
  Li  Li40  1  0.54338200  0.51364500  0.10032050  1
  Li  Li41  1  0.54338200  0.51364500  0.35032050  1
  Li  Li42  1  0.54338200  0.51364500  0.60032050  1
  Li  Li43  1  0.54338200  0.51364500  0.85032050  1
  Li  Li44  1  0.54338200  0.76364500  0.10032050  1
  Li  Li45  1  0.54338200  0.76364500  0.35032050  1
  Li  Li46  1  0.54338200  0.76364500  0.60032050  1
  Li  Li47  1  0.54338200  0.76364500  0.85032050  1
  Li  Li48  1  0.79338200  0.01364500  0.10032050  1
  Li  Li49  1  0.79338200  0.01364500  0.35032050  1
  Li  Li50  1  0.79338200  0.01364500  0.60032050  1
  Li  Li51  1  0.79338200  0.01364500  0.85032050  1
  Li  Li52  1  0.79338200  0.26364500  0.10032050  1
  Li  Li53  1  0.79338200  0.26364500  0.35032050  1
  Li  Li54  1  0.79338200  0.26364500  0.60032050  1
  Li  Li55  1  0.79338200  0.26364500  0.85032050  1
  Li  Li56  1  0.79338200  0.51364500  0.10032050  1
  Li  Li57  1  0.79338200  0.51364500  0.35032050  1
  Li  Li58  1  0.79338200  0.51364500  0.60032050  1
  Li  Li59  1  0.79338200  0.51364500  0.85032050  1
  Li  Li60  1  0.79338200  0.76364500  0.10032050  1
  Li  Li61  1  0.79338200  0.76364500  0.35032050  1
  Li  Li62  1  0.79338200  0.76364500  0.60032050  1
  Li  Li63  1  0.79338200  0.76364500  0.85032050  1
  Li  Li64  1  0.16835450  0.13863375  0.22531425  1
  Li  Li65  1  0.16835450  0.13863375  0.47531425  1
  Li  Li66  1  0.16835450  0.13863375  0.72531425  1
  Li  Li67  1  0.16835450  0.13863375  0.97531425  1
  Li  Li68  1  0.16835450  0.38863375  0.22531425  1
  Li  Li69  1  0.16835450  0.38863375  0.47531425  1
  Li  Li70  1  0.16835450  0.38863375  0.72531425  1
  Li  Li71  1  0.16835450  0.38863375  0.97531425  1
  Li  Li72  1  0.16835450  0.63863375  0.22531425  1
  Li  Li73  1  0.16835450  0.63863375  0.47531425  1
  Li  Li74  1  0.16835450  0.63863375  0.72531425  1
  Li  Li75  1  0.16835450  0.63863375  0.97531425  1
  Li  Li76  1  0.16835450  0.88863375  0.22531425  1
  Li  Li77  1  0.16835450  0.88863375  0.47531425  1
  Li  Li78  1  0.16835450  0.88863375  0.72531425  1
  Li  Li79  1  0.16835450  0.88863375  0.97531425  1
  Li  Li80  1  0.41835450  0.13863375  0.22531425  1
  Li  Li81  1  0.41835450  0.13863375  0.47531425  1
  Li  Li82  1  0.41835450  0.13863375  0.72531425  1
  Li  Li83  1  0.41835450  0.13863375  0.97531425  1
  Li  Li84  1  0.41835450  0.38863375  0.22531425  1
  Li  Li85  1  0.41835450  0.38863375  0.47531425  1
  Li  Li86  1  0.41835450  0.38863375  0.72531425  1
  Li  Li87  1  0.41835450  0.38863375  0.97531425  1
  Li  Li88  1  0.41835450  0.63863375  0.22531425  1
  Li  Li89  1  0.41835450  0.63863375  0.47531425  1
  Li  Li90  1  0.41835450  0.63863375  0.72531425  1
  Li  Li91  1  0.41835450  0.63863375  0.97531425  1
  Li  Li92  1  0.41835450  0.88863375  0.22531425  1
  Li  Li93  1  0.41835450  0.88863375  0.47531425  1
  Li  Li94  1  0.41835450  0.88863375  0.72531425  1
  Li  Li95  1  0.41835450  0.88863375  0.97531425  1
  Li  Li96  1  0.66835450  0.13863375  0.22531425  1
  Li  Li97  1  0.66835450  0.13863375  0.47531425  1
  Li  Li98  1  0.66835450  0.13863375  0.72531425  1
  Li  Li99  1  0.66835450  0.13863375  0.97531425  1
  Li  Li100  1  0.66835450  0.38863375  0.22531425  1
  Li  Li101  1  0.66835450  0.38863375  0.47531425  1
  Li  Li102  1  0.66835450  0.38863375  0.72531425  1
  Li  Li103  1  0.66835450  0.38863375  0.97531425  1
  Li  Li104  1  0.66835450  0.63863375  0.22531425  1
  Li  Li105  1  0.66835450  0.63863375  0.47531425  1
  Li  Li106  1  0.66835450  0.63863375  0.72531425  1
  Li  Li107  1  0.66835450  0.63863375  0.97531425  1
  Li  Li108  1  0.66835450  0.88863375  0.22531425  1
  Li  Li109  1  0.66835450  0.88863375  0.47531425  1
  Li  Li110  1  0.66835450  0.88863375  0.72531425  1
  Li  Li111  1  0.66835450  0.88863375  0.97531425  1
  Li  Li112  1  0.91835450  0.13863375  0.22531425  1
  Li  Li113  1  0.91835450  0.13863375  0.47531425  1
  Li  Li114  1  0.91835450  0.13863375  0.72531425  1
  Li  Li115  1  0.91835450  0.13863375  0.97531425  1
  Li  Li116  1  0.91835450  0.38863375  0.22531425  1
  Li  Li117  1  0.91835450  0.38863375  0.47531425  1
  Li  Li118  1  0.91835450  0.38863375  0.72531425  1
  Li  Li119  1  0.91835450  0.38863375  0.97531425  1
  Li  Li120  1  0.91835450  0.63863375  0.22531425  1
  Li  Li121  1  0.91835450  0.63863375  0.47531425  1
  Li  Li122  1  0.91835450  0.63863375  0.72531425  1
  Li  Li123  1  0.91835450  0.63863375  0.97531425  1
  Li  Li124  1  0.91835450  0.88863375  0.22531425  1
  Li  Li125  1  0.91835450  0.88863375  0.47531425  1
  Li  Li126  1  0.91835450  0.88863375  0.72531425  1
  Li  Li127  1  0.91835450  0.88863375  0.97531425  1
  Li  Li128  1  0.08164325  0.11136825  0.02468600  1
  Li  Li129  1  0.08164325  0.11136825  0.27468600  1
  Li  Li130  1  0.08164325  0.11136825  0.52468600  1
  Li  Li131  1  0.08164325  0.11136825  0.77468600  1
  Li  Li132  1  0.08164325  0.36136825  0.02468600  1
  Li  Li133  1  0.08164325  0.36136825  0.27468600  1
  Li  Li134  1  0.08164325  0.36136825  0.52468600  1
  Li  Li135  1  0.08164325  0.36136825  0.77468600  1
  Li  Li136  1  0.08164325  0.61136825  0.02468600  1
  Li  Li137  1  0.08164325  0.61136825  0.27468600  1
  Li  Li138  1  0.08164325  0.61136825  0.52468600  1
  Li  Li139  1  0.08164325  0.61136825  0.77468600  1
  Li  Li140  1  0.08164325  0.86136825  0.02468600  1
  Li  Li141  1  0.08164325  0.86136825  0.27468600  1
  Li  Li142  1  0.08164325  0.86136825  0.52468600  1
  Li  Li143  1  0.08164325  0.86136825  0.77468600  1
  Li  Li144  1  0.33164325  0.11136825  0.02468600  1
  Li  Li145  1  0.33164325  0.11136825  0.27468600  1
  Li  Li146  1  0.33164325  0.11136825  0.52468600  1
  Li  Li147  1  0.33164325  0.11136825  0.77468600  1
  Li  Li148  1  0.33164325  0.36136825  0.02468600  1
  Li  Li149  1  0.33164325  0.36136825  0.27468600  1
  Li  Li150  1  0.33164325  0.36136825  0.52468600  1
  Li  Li151  1  0.33164325  0.36136825  0.77468600  1
  Li  Li152  1  0.33164325  0.61136825  0.02468600  1
  Li  Li153  1  0.33164325  0.61136825  0.27468600  1
  Li  Li154  1  0.33164325  0.61136825  0.52468600  1
  Li  Li155  1  0.33164325  0.61136825  0.77468600  1
  Li  Li156  1  0.33164325  0.86136825  0.02468600  1
  Li  Li157  1  0.33164325  0.86136825  0.27468600  1
  Li  Li158  1  0.33164325  0.86136825  0.52468600  1
  Li  Li159  1  0.33164325  0.86136825  0.77468600  1
  Li  Li160  1  0.58164325  0.11136825  0.02468600  1
  Li  Li161  1  0.58164325  0.11136825  0.27468600  1
  Li  Li162  1  0.58164325  0.11136825  0.52468600  1
  Li  Li163  1  0.58164325  0.11136825  0.77468600  1
  Li  Li164  1  0.58164325  0.36136825  0.02468600  1
  Li  Li165  1  0.58164325  0.36136825  0.27468600  1
  Li  Li166  1  0.58164325  0.36136825  0.52468600  1
  Li  Li167  1  0.58164325  0.36136825  0.77468600  1
  Li  Li168  1  0.58164325  0.61136825  0.02468600  1
  Li  Li169  1  0.58164325  0.61136825  0.27468600  1
  Li  Li170  1  0.58164325  0.61136825  0.52468600  1
  Li  Li171  1  0.58164325  0.61136825  0.77468600  1
  Li  Li172  1  0.58164325  0.86136825  0.02468600  1
  Li  Li173  1  0.58164325  0.86136825  0.27468600  1
  Li  Li174  1  0.58164325  0.86136825  0.52468600  1
  Li  Li175  1  0.58164325  0.86136825  0.77468600  1
  Li  Li176  1  0.83164325  0.11136825  0.02468600  1
  Li  Li177  1  0.83164325  0.11136825  0.27468600  1
  Li  Li178  1  0.83164325  0.11136825  0.52468600  1
  Li  Li179  1  0.83164325  0.11136825  0.77468600  1
  Li  Li180  1  0.83164325  0.36136825  0.02468600  1
  Li  Li181  1  0.83164325  0.36136825  0.27468600  1
  Li  Li182  1  0.83164325  0.36136825  0.52468600  1
  Li  Li183  1  0.83164325  0.36136825  0.77468600  1
  Li  Li184  1  0.83164325  0.61136825  0.02468600  1
  Li  Li185  1  0.83164325  0.61136825  0.27468600  1
  Li  Li186  1  0.83164325  0.61136825  0.52468600  1
  Li  Li187  1  0.83164325  0.61136825  0.77468600  1
  Li  Li188  1  0.83164325  0.86136825  0.02468600  1
  Li  Li189  1  0.83164325  0.86136825  0.27468600  1
  Li  Li190  1  0.83164325  0.86136825  0.52468600  1
  Li  Li191  1  0.83164325  0.86136825  0.77468600  1
  Li  Li192  1  0.20661475  0.23635575  0.14968400  1
  Li  Li193  1  0.20661475  0.23635575  0.39968400  1
  Li  Li194  1  0.20661475  0.23635575  0.64968400  1
  Li  Li195  1  0.20661475  0.23635575  0.89968400  1
  Li  Li196  1  0.20661475  0.48635575  0.14968400  1
  Li  Li197  1  0.20661475  0.48635575  0.39968400  1
  Li  Li198  1  0.20661475  0.48635575  0.64968400  1
  Li  Li199  1  0.20661475  0.48635575  0.89968400  1
  Li  Li200  1  0.20661475  0.73635575  0.14968400  1
  Li  Li201  1  0.20661475  0.73635575  0.39968400  1
  Li  Li202  1  0.20661475  0.73635575  0.64968400  1
  Li  Li203  1  0.20661475  0.73635575  0.89968400  1
  Li  Li204  1  0.20661475  0.98635575  0.14968400  1
  Li  Li205  1  0.20661475  0.98635575  0.39968400  1
  Li  Li206  1  0.20661475  0.98635575  0.64968400  1
  Li  Li207  1  0.20661475  0.98635575  0.89968400  1
  Li  Li208  1  0.45661475  0.23635575  0.14968400  1
  Li  Li209  1  0.45661475  0.23635575  0.39968400  1
  Li  Li210  1  0.45661475  0.23635575  0.64968400  1
  Li  Li211  1  0.45661475  0.23635575  0.89968400  1
  Li  Li212  1  0.45661475  0.48635575  0.14968400  1
  Li  Li213  1  0.45661475  0.48635575  0.39968400  1
  Li  Li214  1  0.45661475  0.48635575  0.64968400  1
  Li  Li215  1  0.45661475  0.48635575  0.89968400  1
  Li  Li216  1  0.45661475  0.73635575  0.14968400  1
  Li  Li217  1  0.45661475  0.73635575  0.39968400  1
  Li  Li218  1  0.45661475  0.73635575  0.64968400  1
  Li  Li219  1  0.45661475  0.73635575  0.89968400  1
  Li  Li220  1  0.45661475  0.98635575  0.14968400  1
  Li  Li221  1  0.45661475  0.98635575  0.39968400  1
  Li  Li222  1  0.45661475  0.98635575  0.64968400  1
  Li  Li223  1  0.45661475  0.98635575  0.89968400  1
  Li  Li224  1  0.70661475  0.23635575  0.14968400  1
  Li  Li225  1  0.70661475  0.23635575  0.39968400  1
  Li  Li226  1  0.70661475  0.23635575  0.64968400  1
  Li  Li227  1  0.70661475  0.23635575  0.89968400  1
  Li  Li228  1  0.70661475  0.48635575  0.14968400  1
  Li  Li229  1  0.70661475  0.48635575  0.39968400  1
  Li  Li230  1  0.70661475  0.48635575  0.64968400  1
  Li  Li231  1  0.70661475  0.48635575  0.89968400  1
  Li  Li232  1  0.70661475  0.73635575  0.14968400  1
  Li  Li233  1  0.70661475  0.73635575  0.39968400  1
  Li  Li234  1  0.70661475  0.73635575  0.64968400  1
  Li  Li235  1  0.70661475  0.73635575  0.89968400  1
  Li  Li236  1  0.70661475  0.98635575  0.14968400  1
  Li  Li237  1  0.70661475  0.98635575  0.39968400  1
  Li  Li238  1  0.70661475  0.98635575  0.64968400  1
  Li  Li239  1  0.70661475  0.98635575  0.89968400  1
  Li  Li240  1  0.95661475  0.23635575  0.14968400  1
  Li  Li241  1  0.95661475  0.23635575  0.39968400  1
  Li  Li242  1  0.95661475  0.23635575  0.64968400  1
  Li  Li243  1  0.95661475  0.23635575  0.89968400  1
  Li  Li244  1  0.95661475  0.48635575  0.14968400  1
  Li  Li245  1  0.95661475  0.48635575  0.39968400  1
  Li  Li246  1  0.95661475  0.48635575  0.64968400  1
  Li  Li247  1  0.95661475  0.48635575  0.89968400  1
  Li  Li248  1  0.95661475  0.73635575  0.14968400  1
  Li  Li249  1  0.95661475  0.73635575  0.39968400  1
  Li  Li250  1  0.95661475  0.73635575  0.64968400  1
  Li  Li251  1  0.95661475  0.73635575  0.89968400  1
  Li  Li252  1  0.95661475  0.98635575  0.14968400  1
  Li  Li253  1  0.95661475  0.98635575  0.39968400  1
  Li  Li254  1  0.95661475  0.98635575  0.64968400  1
  Li  Li255  1  0.95661475  0.98635575  0.89968400  1
  Cr  Cr256  1  0.12498700  0.12499000  0.12501675  1
  Cr  Cr257  1  0.12498700  0.12499000  0.37501675  1
  Cr  Cr258  1  0.12498700  0.12499000  0.62501675  1
  Cr  Cr259  1  0.12498700  0.12499000  0.87501675  1
  Cr  Cr260  1  0.12498700  0.37499000  0.12501675  1
  Cr  Cr261  1  0.12498700  0.37499000  0.37501675  1
  Cr  Cr262  1  0.12498700  0.37499000  0.62501675  1
  Cr  Cr263  1  0.12498700  0.37499000  0.87501675  1
  Cr  Cr264  1  0.12498700  0.62499000  0.12501675  1
  Cr  Cr265  1  0.12498700  0.62499000  0.37501675  1
  Cr  Cr266  1  0.12498700  0.62499000  0.62501675  1
  Cr  Cr267  1  0.12498700  0.62499000  0.87501675  1
  Cr  Cr268  1  0.12498700  0.87499000  0.12501675  1
  Cr  Cr269  1  0.12498700  0.87499000  0.37501675  1
  Cr  Cr270  1  0.12498700  0.87499000  0.62501675  1
  Cr  Cr271  1  0.12498700  0.87499000  0.87501675  1
  Cr  Cr272  1  0.37498700  0.12499000  0.12501675  1
  Cr  Cr273  1  0.37498700  0.12499000  0.37501675  1
  Cr  Cr274  1  0.37498700  0.12499000  0.62501675  1
  Cr  Cr275  1  0.37498700  0.12499000  0.87501675  1
  Cr  Cr276  1  0.37498700  0.37499000  0.12501675  1
  Cr  Cr277  1  0.37498700  0.37499000  0.37501675  1
  Cr  Cr278  1  0.37498700  0.37499000  0.62501675  1
  Cr  Cr279  1  0.37498700  0.37499000  0.87501675  1
  Cr  Cr280  1  0.37498700  0.62499000  0.12501675  1
  Cr  Cr281  1  0.37498700  0.62499000  0.37501675  1
  Cr  Cr282  1  0.37498700  0.62499000  0.62501675  1
  Cr  Cr283  1  0.37498700  0.62499000  0.87501675  1
  Cr  Cr284  1  0.37498700  0.87499000  0.12501675  1
  Cr  Cr285  1  0.37498700  0.87499000  0.37501675  1
  Cr  Cr286  1  0.37498700  0.87499000  0.62501675  1
  Cr  Cr287  1  0.37498700  0.87499000  0.87501675  1
  Cr  Cr288  1  0.62498700  0.12499000  0.12501675  1
  Cr  Cr289  1  0.62498700  0.12499000  0.37501675  1
  Cr  Cr290  1  0.62498700  0.12499000  0.62501675  1
  Cr  Cr291  1  0.62498700  0.12499000  0.87501675  1
  Cr  Cr292  1  0.62498700  0.37499000  0.12501675  1
  Cr  Cr293  1  0.62498700  0.37499000  0.37501675  1
  Cr  Cr294  1  0.62498700  0.37499000  0.62501675  1
  Cr  Cr295  1  0.62498700  0.37499000  0.87501675  1
  Cr  Cr296  1  0.62498700  0.62499000  0.12501675  1
  Cr  Cr297  1  0.62498700  0.62499000  0.37501675  1
  Cr  Cr298  1  0.62498700  0.62499000  0.62501675  1
  Cr  Cr299  1  0.62498700  0.62499000  0.87501675  1
  Cr  Cr300  1  0.62498700  0.87499000  0.12501675  1
  Cr  Cr301  1  0.62498700  0.87499000  0.37501675  1
  Cr  Cr302  1  0.62498700  0.87499000  0.62501675  1
  Cr  Cr303  1  0.62498700  0.87499000  0.87501675  1
  Cr  Cr304  1  0.87498700  0.12499000  0.12501675  1
  Cr  Cr305  1  0.87498700  0.12499000  0.37501675  1
  Cr  Cr306  1  0.87498700  0.12499000  0.62501675  1
  Cr  Cr307  1  0.87498700  0.12499000  0.87501675  1
  Cr  Cr308  1  0.87498700  0.37499000  0.12501675  1
  Cr  Cr309  1  0.87498700  0.37499000  0.37501675  1
  Cr  Cr310  1  0.87498700  0.37499000  0.62501675  1
  Cr  Cr311  1  0.87498700  0.37499000  0.87501675  1
  Cr  Cr312  1  0.87498700  0.62499000  0.12501675  1
  Cr  Cr313  1  0.87498700  0.62499000  0.37501675  1
  Cr  Cr314  1  0.87498700  0.62499000  0.62501675  1
  Cr  Cr315  1  0.87498700  0.62499000  0.87501675  1
  Cr  Cr316  1  0.87498700  0.87499000  0.12501675  1
  Cr  Cr317  1  0.87498700  0.87499000  0.37501675  1
  Cr  Cr318  1  0.87498700  0.87499000  0.62501675  1
  Cr  Cr319  1  0.87498700  0.87499000  0.87501675  1
  Cr  Cr320  1  0.22053200  0.04804700  0.15469650  1
  Cr  Cr321  1  0.22053200  0.04804700  0.40469650  1
  Cr  Cr322  1  0.22053200  0.04804700  0.65469650  1
  Cr  Cr323  1  0.22053200  0.04804700  0.90469650  1
  Cr  Cr324  1  0.22053200  0.29804700  0.15469650  1
  Cr  Cr325  1  0.22053200  0.29804700  0.40469650  1
  Cr  Cr326  1  0.22053200  0.29804700  0.65469650  1
  Cr  Cr327  1  0.22053200  0.29804700  0.90469650  1
  Cr  Cr328  1  0.22053200  0.54804700  0.15469650  1
  Cr  Cr329  1  0.22053200  0.54804700  0.40469650  1
  Cr  Cr330  1  0.22053200  0.54804700  0.65469650  1
  Cr  Cr331  1  0.22053200  0.54804700  0.90469650  1
  Cr  Cr332  1  0.22053200  0.79804700  0.15469650  1
  Cr  Cr333  1  0.22053200  0.79804700  0.40469650  1
  Cr  Cr334  1  0.22053200  0.79804700  0.65469650  1
  Cr  Cr335  1  0.22053200  0.79804700  0.90469650  1
  Cr  Cr336  1  0.47053200  0.04804700  0.15469650  1
  Cr  Cr337  1  0.47053200  0.04804700  0.40469650  1
  Cr  Cr338  1  0.47053200  0.04804700  0.65469650  1
  Cr  Cr339  1  0.47053200  0.04804700  0.90469650  1
  Cr  Cr340  1  0.47053200  0.29804700  0.15469650  1
  Cr  Cr341  1  0.47053200  0.29804700  0.40469650  1
  Cr  Cr342  1  0.47053200  0.29804700  0.65469650  1
  Cr  Cr343  1  0.47053200  0.29804700  0.90469650  1
  Cr  Cr344  1  0.47053200  0.54804700  0.15469650  1
  Cr  Cr345  1  0.47053200  0.54804700  0.40469650  1
  Cr  Cr346  1  0.47053200  0.54804700  0.65469650  1
  Cr  Cr347  1  0.47053200  0.54804700  0.90469650  1
  Cr  Cr348  1  0.47053200  0.79804700  0.15469650  1
  Cr  Cr349  1  0.47053200  0.79804700  0.40469650  1
  Cr  Cr350  1  0.47053200  0.79804700  0.65469650  1
  Cr  Cr351  1  0.47053200  0.79804700  0.90469650  1
  Cr  Cr352  1  0.72053200  0.04804700  0.15469650  1
  Cr  Cr353  1  0.72053200  0.04804700  0.40469650  1
  Cr  Cr354  1  0.72053200  0.04804700  0.65469650  1
  Cr  Cr355  1  0.72053200  0.04804700  0.90469650  1
  Cr  Cr356  1  0.72053200  0.29804700  0.15469650  1
  Cr  Cr357  1  0.72053200  0.29804700  0.40469650  1
  Cr  Cr358  1  0.72053200  0.29804700  0.65469650  1
  Cr  Cr359  1  0.72053200  0.29804700  0.90469650  1
  Cr  Cr360  1  0.72053200  0.54804700  0.15469650  1
  Cr  Cr361  1  0.72053200  0.54804700  0.40469650  1
  Cr  Cr362  1  0.72053200  0.54804700  0.65469650  1
  Cr  Cr363  1  0.72053200  0.54804700  0.90469650  1
  Cr  Cr364  1  0.72053200  0.79804700  0.15469650  1
  Cr  Cr365  1  0.72053200  0.79804700  0.40469650  1
  Cr  Cr366  1  0.72053200  0.79804700  0.65469650  1
  Cr  Cr367  1  0.72053200  0.79804700  0.90469650  1
  Cr  Cr368  1  0.97053200  0.04804700  0.15469650  1
  Cr  Cr369  1  0.97053200  0.04804700  0.40469650  1
  Cr  Cr370  1  0.97053200  0.04804700  0.65469650  1
  Cr  Cr371  1  0.97053200  0.04804700  0.90469650  1
  Cr  Cr372  1  0.97053200  0.29804700  0.15469650  1
  Cr  Cr373  1  0.97053200  0.29804700  0.40469650  1
  Cr  Cr374  1  0.97053200  0.29804700  0.65469650  1
  Cr  Cr375  1  0.97053200  0.29804700  0.90469650  1
  Cr  Cr376  1  0.97053200  0.54804700  0.15469650  1
  Cr  Cr377  1  0.97053200  0.54804700  0.40469650  1
  Cr  Cr378  1  0.97053200  0.54804700  0.65469650  1
  Cr  Cr379  1  0.97053200  0.54804700  0.90469650  1
  Cr  Cr380  1  0.97053200  0.79804700  0.15469650  1
  Cr  Cr381  1  0.97053200  0.79804700  0.40469650  1
  Cr  Cr382  1  0.97053200  0.79804700  0.65469650  1
  Cr  Cr383  1  0.97053200  0.79804700  0.90469650  1
  Cr  Cr384  1  0.09543325  0.17317275  0.02945650  1
  Cr  Cr385  1  0.09543325  0.17317275  0.27945650  1
  Cr  Cr386  1  0.09543325  0.17317275  0.52945650  1
  Cr  Cr387  1  0.09543325  0.17317275  0.77945650  1
  Cr  Cr388  1  0.09543325  0.42317275  0.02945650  1
  Cr  Cr389  1  0.09543325  0.42317275  0.27945650  1
  Cr  Cr390  1  0.09543325  0.42317275  0.52945650  1
  Cr  Cr391  1  0.09543325  0.42317275  0.77945650  1
  Cr  Cr392  1  0.09543325  0.67317275  0.02945650  1
  Cr  Cr393  1  0.09543325  0.67317275  0.27945650  1
  Cr  Cr394  1  0.09543325  0.67317275  0.52945650  1
  Cr  Cr395  1  0.09543325  0.67317275  0.77945650  1
  Cr  Cr396  1  0.09543325  0.92317275  0.02945650  1
  Cr  Cr397  1  0.09543325  0.92317275  0.27945650  1
  Cr  Cr398  1  0.09543325  0.92317275  0.52945650  1
  Cr  Cr399  1  0.09543325  0.92317275  0.77945650  1
  Cr  Cr400  1  0.34543325  0.17317275  0.02945650  1
  Cr  Cr401  1  0.34543325  0.17317275  0.27945650  1
  Cr  Cr402  1  0.34543325  0.17317275  0.52945650  1
  Cr  Cr403  1  0.34543325  0.17317275  0.77945650  1
  Cr  Cr404  1  0.34543325  0.42317275  0.02945650  1
  Cr  Cr405  1  0.34543325  0.42317275  0.27945650  1
  Cr  Cr406  1  0.34543325  0.42317275  0.52945650  1
  Cr  Cr407  1  0.34543325  0.42317275  0.77945650  1
  Cr  Cr408  1  0.34543325  0.67317275  0.02945650  1
  Cr  Cr409  1  0.34543325  0.67317275  0.27945650  1
  Cr  Cr410  1  0.34543325  0.67317275  0.52945650  1
  Cr  Cr411  1  0.34543325  0.67317275  0.77945650  1
  Cr  Cr412  1  0.34543325  0.92317275  0.02945650  1
  Cr  Cr413  1  0.34543325  0.92317275  0.27945650  1
  Cr  Cr414  1  0.34543325  0.92317275  0.52945650  1
  Cr  Cr415  1  0.34543325  0.92317275  0.77945650  1
  Cr  Cr416  1  0.59543325  0.17317275  0.02945650  1
  Cr  Cr417  1  0.59543325  0.17317275  0.27945650  1
  Cr  Cr418  1  0.59543325  0.17317275  0.52945650  1
  Cr  Cr419  1  0.59543325  0.17317275  0.77945650  1
  Cr  Cr420  1  0.59543325  0.42317275  0.02945650  1
  Cr  Cr421  1  0.59543325  0.42317275  0.27945650  1
  Cr  Cr422  1  0.59543325  0.42317275  0.52945650  1
  Cr  Cr423  1  0.59543325  0.42317275  0.77945650  1
  Cr  Cr424  1  0.59543325  0.67317275  0.02945650  1
  Cr  Cr425  1  0.59543325  0.67317275  0.27945650  1
  Cr  Cr426  1  0.59543325  0.67317275  0.52945650  1
  Cr  Cr427  1  0.59543325  0.67317275  0.77945650  1
  Cr  Cr428  1  0.59543325  0.92317275  0.02945650  1
  Cr  Cr429  1  0.59543325  0.92317275  0.27945650  1
  Cr  Cr430  1  0.59543325  0.92317275  0.52945650  1
  Cr  Cr431  1  0.59543325  0.92317275  0.77945650  1
  Cr  Cr432  1  0.84543325  0.17317275  0.02945650  1
  Cr  Cr433  1  0.84543325  0.17317275  0.27945650  1
  Cr  Cr434  1  0.84543325  0.17317275  0.52945650  1
  Cr  Cr435  1  0.84543325  0.17317275  0.77945650  1
  Cr  Cr436  1  0.84543325  0.42317275  0.02945650  1
  Cr  Cr437  1  0.84543325  0.42317275  0.27945650  1
  Cr  Cr438  1  0.84543325  0.42317275  0.52945650  1
  Cr  Cr439  1  0.84543325  0.42317275  0.77945650  1
  Cr  Cr440  1  0.84543325  0.67317275  0.02945650  1
  Cr  Cr441  1  0.84543325  0.67317275  0.27945650  1
  Cr  Cr442  1  0.84543325  0.67317275  0.52945650  1
  Cr  Cr443  1  0.84543325  0.67317275  0.77945650  1
  Cr  Cr444  1  0.84543325  0.92317275  0.02945650  1
  Cr  Cr445  1  0.84543325  0.92317275  0.27945650  1
  Cr  Cr446  1  0.84543325  0.92317275  0.52945650  1
  Cr  Cr447  1  0.84543325  0.92317275  0.77945650  1
  Cr  Cr448  1  0.15455575  0.07683175  0.22053550  1
  Cr  Cr449  1  0.15455575  0.07683175  0.47053550  1
  Cr  Cr450  1  0.15455575  0.07683175  0.72053550  1
  Cr  Cr451  1  0.15455575  0.07683175  0.97053550  1
  Cr  Cr452  1  0.15455575  0.32683175  0.22053550  1
  Cr  Cr453  1  0.15455575  0.32683175  0.47053550  1
  Cr  Cr454  1  0.15455575  0.32683175  0.72053550  1
  Cr  Cr455  1  0.15455575  0.32683175  0.97053550  1
  Cr  Cr456  1  0.15455575  0.57683175  0.22053550  1
  Cr  Cr457  1  0.15455575  0.57683175  0.47053550  1
  Cr  Cr458  1  0.15455575  0.57683175  0.72053550  1
  Cr  Cr459  1  0.15455575  0.57683175  0.97053550  1
  Cr  Cr460  1  0.15455575  0.82683175  0.22053550  1
  Cr  Cr461  1  0.15455575  0.82683175  0.47053550  1
  Cr  Cr462  1  0.15455575  0.82683175  0.72053550  1
  Cr  Cr463  1  0.15455575  0.82683175  0.97053550  1
  Cr  Cr464  1  0.40455575  0.07683175  0.22053550  1
  Cr  Cr465  1  0.40455575  0.07683175  0.47053550  1
  Cr  Cr466  1  0.40455575  0.07683175  0.72053550  1
  Cr  Cr467  1  0.40455575  0.07683175  0.97053550  1
  Cr  Cr468  1  0.40455575  0.32683175  0.22053550  1
  Cr  Cr469  1  0.40455575  0.32683175  0.47053550  1
  Cr  Cr470  1  0.40455575  0.32683175  0.72053550  1
  Cr  Cr471  1  0.40455575  0.32683175  0.97053550  1
  Cr  Cr472  1  0.40455575  0.57683175  0.22053550  1
  Cr  Cr473  1  0.40455575  0.57683175  0.47053550  1
  Cr  Cr474  1  0.40455575  0.57683175  0.72053550  1
  Cr  Cr475  1  0.40455575  0.57683175  0.97053550  1
  Cr  Cr476  1  0.40455575  0.82683175  0.22053550  1
  Cr  Cr477  1  0.40455575  0.82683175  0.47053550  1
  Cr  Cr478  1  0.40455575  0.82683175  0.72053550  1
  Cr  Cr479  1  0.40455575  0.82683175  0.97053550  1
  Cr  Cr480  1  0.65455575  0.07683175  0.22053550  1
  Cr  Cr481  1  0.65455575  0.07683175  0.47053550  1
  Cr  Cr482  1  0.65455575  0.07683175  0.72053550  1
  Cr  Cr483  1  0.65455575  0.07683175  0.97053550  1
  Cr  Cr484  1  0.65455575  0.32683175  0.22053550  1
  Cr  Cr485  1  0.65455575  0.32683175  0.47053550  1
  Cr  Cr486  1  0.65455575  0.32683175  0.72053550  1
  Cr  Cr487  1  0.65455575  0.32683175  0.97053550  1
  Cr  Cr488  1  0.65455575  0.57683175  0.22053550  1
  Cr  Cr489  1  0.65455575  0.57683175  0.47053550  1
  Cr  Cr490  1  0.65455575  0.57683175  0.72053550  1
  Cr  Cr491  1  0.65455575  0.57683175  0.97053550  1
  Cr  Cr492  1  0.65455575  0.82683175  0.22053550  1
  Cr  Cr493  1  0.65455575  0.82683175  0.47053550  1
  Cr  Cr494  1  0.65455575  0.82683175  0.72053550  1
  Cr  Cr495  1  0.65455575  0.82683175  0.97053550  1
  Cr  Cr496  1  0.90455575  0.07683175  0.22053550  1
  Cr  Cr497  1  0.90455575  0.07683175  0.47053550  1
  Cr  Cr498  1  0.90455575  0.07683175  0.72053550  1
  Cr  Cr499  1  0.90455575  0.07683175  0.97053550  1
  Cr  Cr500  1  0.90455575  0.32683175  0.22053550  1
  Cr  Cr501  1  0.90455575  0.32683175  0.47053550  1
  Cr  Cr502  1  0.90455575  0.32683175  0.72053550  1
  Cr  Cr503  1  0.90455575  0.32683175  0.97053550  1
  Cr  Cr504  1  0.90455575  0.57683175  0.22053550  1
  Cr  Cr505  1  0.90455575  0.57683175  0.47053550  1
  Cr  Cr506  1  0.90455575  0.57683175  0.72053550  1
  Cr  Cr507  1  0.90455575  0.57683175  0.97053550  1
  Cr  Cr508  1  0.90455575  0.82683175  0.22053550  1
  Cr  Cr509  1  0.90455575  0.82683175  0.47053550  1
  Cr  Cr510  1  0.90455575  0.82683175  0.72053550  1
  Cr  Cr511  1  0.90455575  0.82683175  0.97053550  1
  Cr  Cr512  1  0.02945725  0.20196050  0.09528900  1
  Cr  Cr513  1  0.02945725  0.20196050  0.34528900  1
  Cr  Cr514  1  0.02945725  0.20196050  0.59528900  1
  Cr  Cr515  1  0.02945725  0.20196050  0.84528900  1
  Cr  Cr516  1  0.02945725  0.45196050  0.09528900  1
  Cr  Cr517  1  0.02945725  0.45196050  0.34528900  1
  Cr  Cr518  1  0.02945725  0.45196050  0.59528900  1
  Cr  Cr519  1  0.02945725  0.45196050  0.84528900  1
  Cr  Cr520  1  0.02945725  0.70196050  0.09528900  1
  Cr  Cr521  1  0.02945725  0.70196050  0.34528900  1
  Cr  Cr522  1  0.02945725  0.70196050  0.59528900  1
  Cr  Cr523  1  0.02945725  0.70196050  0.84528900  1
  Cr  Cr524  1  0.02945725  0.95196050  0.09528900  1
  Cr  Cr525  1  0.02945725  0.95196050  0.34528900  1
  Cr  Cr526  1  0.02945725  0.95196050  0.59528900  1
  Cr  Cr527  1  0.02945725  0.95196050  0.84528900  1
  Cr  Cr528  1  0.27945725  0.20196050  0.09528900  1
  Cr  Cr529  1  0.27945725  0.20196050  0.34528900  1
  Cr  Cr530  1  0.27945725  0.20196050  0.59528900  1
  Cr  Cr531  1  0.27945725  0.20196050  0.84528900  1
  Cr  Cr532  1  0.27945725  0.45196050  0.09528900  1
  Cr  Cr533  1  0.27945725  0.45196050  0.34528900  1
  Cr  Cr534  1  0.27945725  0.45196050  0.59528900  1
  Cr  Cr535  1  0.27945725  0.45196050  0.84528900  1
  Cr  Cr536  1  0.27945725  0.70196050  0.09528900  1
  Cr  Cr537  1  0.27945725  0.70196050  0.34528900  1
  Cr  Cr538  1  0.27945725  0.70196050  0.59528900  1
  Cr  Cr539  1  0.27945725  0.70196050  0.84528900  1
  Cr  Cr540  1  0.27945725  0.95196050  0.09528900  1
  Cr  Cr541  1  0.27945725  0.95196050  0.34528900  1
  Cr  Cr542  1  0.27945725  0.95196050  0.59528900  1
  Cr  Cr543  1  0.27945725  0.95196050  0.84528900  1
  Cr  Cr544  1  0.52945725  0.20196050  0.09528900  1
  Cr  Cr545  1  0.52945725  0.20196050  0.34528900  1
  Cr  Cr546  1  0.52945725  0.20196050  0.59528900  1
  Cr  Cr547  1  0.52945725  0.20196050  0.84528900  1
  Cr  Cr548  1  0.52945725  0.45196050  0.09528900  1
  Cr  Cr549  1  0.52945725  0.45196050  0.34528900  1
  Cr  Cr550  1  0.52945725  0.45196050  0.59528900  1
  Cr  Cr551  1  0.52945725  0.45196050  0.84528900  1
  Cr  Cr552  1  0.52945725  0.70196050  0.09528900  1
  Cr  Cr553  1  0.52945725  0.70196050  0.34528900  1
  Cr  Cr554  1  0.52945725  0.70196050  0.59528900  1
  Cr  Cr555  1  0.52945725  0.70196050  0.84528900  1
  Cr  Cr556  1  0.52945725  0.95196050  0.09528900  1
  Cr  Cr557  1  0.52945725  0.95196050  0.34528900  1
  Cr  Cr558  1  0.52945725  0.95196050  0.59528900  1
  Cr  Cr559  1  0.52945725  0.95196050  0.84528900  1
  Cr  Cr560  1  0.77945725  0.20196050  0.09528900  1
  Cr  Cr561  1  0.77945725  0.20196050  0.34528900  1
  Cr  Cr562  1  0.77945725  0.20196050  0.59528900  1
  Cr  Cr563  1  0.77945725  0.20196050  0.84528900  1
  Cr  Cr564  1  0.77945725  0.45196050  0.09528900  1
  Cr  Cr565  1  0.77945725  0.45196050  0.34528900  1
  Cr  Cr566  1  0.77945725  0.45196050  0.59528900  1
  Cr  Cr567  1  0.77945725  0.45196050  0.84528900  1
  Cr  Cr568  1  0.77945725  0.70196050  0.09528900  1
  Cr  Cr569  1  0.77945725  0.70196050  0.34528900  1
  Cr  Cr570  1  0.77945725  0.70196050  0.59528900  1
  Cr  Cr571  1  0.77945725  0.70196050  0.84528900  1
  Cr  Cr572  1  0.77945725  0.95196050  0.09528900  1
  Cr  Cr573  1  0.77945725  0.95196050  0.34528900  1
  Cr  Cr574  1  0.77945725  0.95196050  0.59528900  1
  Cr  Cr575  1  0.77945725  0.95196050  0.84528900  1
  Cr  Cr576  1  0.00004400  0.24999450  0.24999925  1
  Cr  Cr577  1  0.00004400  0.24999450  0.49999925  1
  Cr  Cr578  1  0.00004400  0.24999450  0.74999925  1
  Cr  Cr579  1  0.00004400  0.24999450  0.99999925  1
  Cr  Cr580  1  0.00004400  0.49999450  0.24999925  1
  Cr  Cr581  1  0.00004400  0.49999450  0.49999925  1
  Cr  Cr582  1  0.00004400  0.49999450  0.74999925  1
  Cr  Cr583  1  0.00004400  0.49999450  0.99999925  1
  Cr  Cr584  1  0.00004400  0.74999450  0.24999925  1
  Cr  Cr585  1  0.00004400  0.74999450  0.49999925  1
  Cr  Cr586  1  0.00004400  0.74999450  0.74999925  1
  Cr  Cr587  1  0.00004400  0.74999450  0.99999925  1
  Cr  Cr588  1  0.00004400  0.99999450  0.24999925  1
  Cr  Cr589  1  0.00004400  0.99999450  0.49999925  1
  Cr  Cr590  1  0.00004400  0.99999450  0.74999925  1
  Cr  Cr591  1  0.00004400  0.99999450  0.99999925  1
  Cr  Cr592  1  0.25004400  0.24999450  0.24999925  1
  Cr  Cr593  1  0.25004400  0.24999450  0.49999925  1
  Cr  Cr594  1  0.25004400  0.24999450  0.74999925  1
  Cr  Cr595  1  0.25004400  0.24999450  0.99999925  1
  Cr  Cr596  1  0.25004400  0.49999450  0.24999925  1
  Cr  Cr597  1  0.25004400  0.49999450  0.49999925  1
  Cr  Cr598  1  0.25004400  0.49999450  0.74999925  1
  Cr  Cr599  1  0.25004400  0.49999450  0.99999925  1
  Cr  Cr600  1  0.25004400  0.74999450  0.24999925  1
  Cr  Cr601  1  0.25004400  0.74999450  0.49999925  1
  Cr  Cr602  1  0.25004400  0.74999450  0.74999925  1
  Cr  Cr603  1  0.25004400  0.74999450  0.99999925  1
  Cr  Cr604  1  0.25004400  0.99999450  0.24999925  1
  Cr  Cr605  1  0.25004400  0.99999450  0.49999925  1
  Cr  Cr606  1  0.25004400  0.99999450  0.74999925  1
  Cr  Cr607  1  0.25004400  0.99999450  0.99999925  1
  Cr  Cr608  1  0.50004400  0.24999450  0.24999925  1
  Cr  Cr609  1  0.50004400  0.24999450  0.49999925  1
  Cr  Cr610  1  0.50004400  0.24999450  0.74999925  1
  Cr  Cr611  1  0.50004400  0.24999450  0.99999925  1
  Cr  Cr612  1  0.50004400  0.49999450  0.24999925  1
  Cr  Cr613  1  0.50004400  0.49999450  0.49999925  1
  Cr  Cr614  1  0.50004400  0.49999450  0.74999925  1
  Cr  Cr615  1  0.50004400  0.49999450  0.99999925  1
  Cr  Cr616  1  0.50004400  0.74999450  0.24999925  1
  Cr  Cr617  1  0.50004400  0.74999450  0.49999925  1
  Cr  Cr618  1  0.50004400  0.74999450  0.74999925  1
  Cr  Cr619  1  0.50004400  0.74999450  0.99999925  1
  Cr  Cr620  1  0.50004400  0.99999450  0.24999925  1
  Cr  Cr621  1  0.50004400  0.99999450  0.49999925  1
  Cr  Cr622  1  0.50004400  0.99999450  0.74999925  1
  Cr  Cr623  1  0.50004400  0.99999450  0.99999925  1
  Cr  Cr624  1  0.75004400  0.24999450  0.24999925  1
  Cr  Cr625  1  0.75004400  0.24999450  0.49999925  1
  Cr  Cr626  1  0.75004400  0.24999450  0.74999925  1
  Cr  Cr627  1  0.75004400  0.24999450  0.99999925  1
  Cr  Cr628  1  0.75004400  0.49999450  0.24999925  1
  Cr  Cr629  1  0.75004400  0.49999450  0.49999925  1
  Cr  Cr630  1  0.75004400  0.49999450  0.74999925  1
  Cr  Cr631  1  0.75004400  0.49999450  0.99999925  1
  Cr  Cr632  1  0.75004400  0.74999450  0.24999925  1
  Cr  Cr633  1  0.75004400  0.74999450  0.49999925  1
  Cr  Cr634  1  0.75004400  0.74999450  0.74999925  1
  Cr  Cr635  1  0.75004400  0.74999450  0.99999925  1
  Cr  Cr636  1  0.75004400  0.99999450  0.24999925  1
  Cr  Cr637  1  0.75004400  0.99999450  0.49999925  1
  Cr  Cr638  1  0.75004400  0.99999450  0.74999925  1
  Cr  Cr639  1  0.75004400  0.99999450  0.99999925  1
  Cr  Cr640  1  0.09511875  0.07154275  0.10622800  1
  Cr  Cr641  1  0.09511875  0.07154275  0.35622800  1
  Cr  Cr642  1  0.09511875  0.07154275  0.60622800  1
  Cr  Cr643  1  0.09511875  0.07154275  0.85622800  1
  Cr  Cr644  1  0.09511875  0.32154275  0.10622800  1
  Cr  Cr645  1  0.09511875  0.32154275  0.35622800  1
  Cr  Cr646  1  0.09511875  0.32154275  0.60622800  1
  Cr  Cr647  1  0.09511875  0.32154275  0.85622800  1
  Cr  Cr648  1  0.09511875  0.57154275  0.10622800  1
  Cr  Cr649  1  0.09511875  0.57154275  0.35622800  1
  Cr  Cr650  1  0.09511875  0.57154275  0.60622800  1
  Cr  Cr651  1  0.09511875  0.57154275  0.85622800  1
  Cr  Cr652  1  0.09511875  0.82154275  0.10622800  1
  Cr  Cr653  1  0.09511875  0.82154275  0.35622800  1
  Cr  Cr654  1  0.09511875  0.82154275  0.60622800  1
  Cr  Cr655  1  0.09511875  0.82154275  0.85622800  1
  Cr  Cr656  1  0.34511875  0.07154275  0.10622800  1
  Cr  Cr657  1  0.34511875  0.07154275  0.35622800  1
  Cr  Cr658  1  0.34511875  0.07154275  0.60622800  1
  Cr  Cr659  1  0.34511875  0.07154275  0.85622800  1
  Cr  Cr660  1  0.34511875  0.32154275  0.10622800  1
  Cr  Cr661  1  0.34511875  0.32154275  0.35622800  1
  Cr  Cr662  1  0.34511875  0.32154275  0.60622800  1
  Cr  Cr663  1  0.34511875  0.32154275  0.85622800  1
  Cr  Cr664  1  0.34511875  0.57154275  0.10622800  1
  Cr  Cr665  1  0.34511875  0.57154275  0.35622800  1
  Cr  Cr666  1  0.34511875  0.57154275  0.60622800  1
  Cr  Cr667  1  0.34511875  0.57154275  0.85622800  1
  Cr  Cr668  1  0.34511875  0.82154275  0.10622800  1
  Cr  Cr669  1  0.34511875  0.82154275  0.35622800  1
  Cr  Cr670  1  0.34511875  0.82154275  0.60622800  1
  Cr  Cr671  1  0.34511875  0.82154275  0.85622800  1
  Cr  Cr672  1  0.59511875  0.07154275  0.10622800  1
  Cr  Cr673  1  0.59511875  0.07154275  0.35622800  1
  Cr  Cr674  1  0.59511875  0.07154275  0.60622800  1
  Cr  Cr675  1  0.59511875  0.07154275  0.85622800  1
  Cr  Cr676  1  0.59511875  0.32154275  0.10622800  1
  Cr  Cr677  1  0.59511875  0.32154275  0.35622800  1
  Cr  Cr678  1  0.59511875  0.32154275  0.60622800  1
  Cr  Cr679  1  0.59511875  0.32154275  0.85622800  1
  Cr  Cr680  1  0.59511875  0.57154275  0.10622800  1
  Cr  Cr681  1  0.59511875  0.57154275  0.35622800  1
  Cr  Cr682  1  0.59511875  0.57154275  0.60622800  1
  Cr  Cr683  1  0.59511875  0.57154275  0.85622800  1
  Cr  Cr684  1  0.59511875  0.82154275  0.10622800  1
  Cr  Cr685  1  0.59511875  0.82154275  0.35622800  1
  Cr  Cr686  1  0.59511875  0.82154275  0.60622800  1
  Cr  Cr687  1  0.59511875  0.82154275  0.85622800  1
  Cr  Cr688  1  0.84511875  0.07154275  0.10622800  1
  Cr  Cr689  1  0.84511875  0.07154275  0.35622800  1
  Cr  Cr690  1  0.84511875  0.07154275  0.60622800  1
  Cr  Cr691  1  0.84511875  0.07154275  0.85622800  1
  Cr  Cr692  1  0.84511875  0.32154275  0.10622800  1
  Cr  Cr693  1  0.84511875  0.32154275  0.35622800  1
  Cr  Cr694  1  0.84511875  0.32154275  0.60622800  1
  Cr  Cr695  1  0.84511875  0.32154275  0.85622800  1
  Cr  Cr696  1  0.84511875  0.57154275  0.10622800  1
  Cr  Cr697  1  0.84511875  0.57154275  0.35622800  1
  Cr  Cr698  1  0.84511875  0.57154275  0.60622800  1
  Cr  Cr699  1  0.84511875  0.57154275  0.85622800  1
  Cr  Cr700  1  0.84511875  0.82154275  0.10622800  1
  Cr  Cr701  1  0.84511875  0.82154275  0.35622800  1
  Cr  Cr702  1  0.84511875  0.82154275  0.60622800  1
  Cr  Cr703  1  0.84511875  0.82154275  0.85622800  1
  Cr  Cr704  1  0.22004000  0.19638925  0.23114100  1
  Cr  Cr705  1  0.22004000  0.19638925  0.48114100  1
  Cr  Cr706  1  0.22004000  0.19638925  0.73114100  1
  Cr  Cr707  1  0.22004000  0.19638925  0.98114100  1
  Cr  Cr708  1  0.22004000  0.44638925  0.23114100  1
  Cr  Cr709  1  0.22004000  0.44638925  0.48114100  1
  Cr  Cr710  1  0.22004000  0.44638925  0.73114100  1
  Cr  Cr711  1  0.22004000  0.44638925  0.98114100  1
  Cr  Cr712  1  0.22004000  0.69638925  0.23114100  1
  Cr  Cr713  1  0.22004000  0.69638925  0.48114100  1
  Cr  Cr714  1  0.22004000  0.69638925  0.73114100  1
  Cr  Cr715  1  0.22004000  0.69638925  0.98114100  1
  Cr  Cr716  1  0.22004000  0.94638925  0.23114100  1
  Cr  Cr717  1  0.22004000  0.94638925  0.48114100  1
  Cr  Cr718  1  0.22004000  0.94638925  0.73114100  1
  Cr  Cr719  1  0.22004000  0.94638925  0.98114100  1
  Cr  Cr720  1  0.47004000  0.19638925  0.23114100  1
  Cr  Cr721  1  0.47004000  0.19638925  0.48114100  1
  Cr  Cr722  1  0.47004000  0.19638925  0.73114100  1
  Cr  Cr723  1  0.47004000  0.19638925  0.98114100  1
  Cr  Cr724  1  0.47004000  0.44638925  0.23114100  1
  Cr  Cr725  1  0.47004000  0.44638925  0.48114100  1
  Cr  Cr726  1  0.47004000  0.44638925  0.73114100  1
  Cr  Cr727  1  0.47004000  0.44638925  0.98114100  1
  Cr  Cr728  1  0.47004000  0.69638925  0.23114100  1
  Cr  Cr729  1  0.47004000  0.69638925  0.48114100  1
  Cr  Cr730  1  0.47004000  0.69638925  0.73114100  1
  Cr  Cr731  1  0.47004000  0.69638925  0.98114100  1
  Cr  Cr732  1  0.47004000  0.94638925  0.23114100  1
  Cr  Cr733  1  0.47004000  0.94638925  0.48114100  1
  Cr  Cr734  1  0.47004000  0.94638925  0.73114100  1
  Cr  Cr735  1  0.47004000  0.94638925  0.98114100  1
  Cr  Cr736  1  0.72004000  0.19638925  0.23114100  1
  Cr  Cr737  1  0.72004000  0.19638925  0.48114100  1
  Cr  Cr738  1  0.72004000  0.19638925  0.73114100  1
  Cr  Cr739  1  0.72004000  0.19638925  0.98114100  1
  Cr  Cr740  1  0.72004000  0.44638925  0.23114100  1
  Cr  Cr741  1  0.72004000  0.44638925  0.48114100  1
  Cr  Cr742  1  0.72004000  0.44638925  0.73114100  1
  Cr  Cr743  1  0.72004000  0.44638925  0.98114100  1
  Cr  Cr744  1  0.72004000  0.69638925  0.23114100  1
  Cr  Cr745  1  0.72004000  0.69638925  0.48114100  1
  Cr  Cr746  1  0.72004000  0.69638925  0.73114100  1
  Cr  Cr747  1  0.72004000  0.69638925  0.98114100  1
  Cr  Cr748  1  0.72004000  0.94638925  0.23114100  1
  Cr  Cr749  1  0.72004000  0.94638925  0.48114100  1
  Cr  Cr750  1  0.72004000  0.94638925  0.73114100  1
  Cr  Cr751  1  0.72004000  0.94638925  0.98114100  1
  Cr  Cr752  1  0.97004000  0.19638925  0.23114100  1
  Cr  Cr753  1  0.97004000  0.19638925  0.48114100  1
  Cr  Cr754  1  0.97004000  0.19638925  0.73114100  1
  Cr  Cr755  1  0.97004000  0.19638925  0.98114100  1
  Cr  Cr756  1  0.97004000  0.44638925  0.23114100  1
  Cr  Cr757  1  0.97004000  0.44638925  0.48114100  1
  Cr  Cr758  1  0.97004000  0.44638925  0.73114100  1
  Cr  Cr759  1  0.97004000  0.44638925  0.98114100  1
  Cr  Cr760  1  0.97004000  0.69638925  0.23114100  1
  Cr  Cr761  1  0.97004000  0.69638925  0.48114100  1
  Cr  Cr762  1  0.97004000  0.69638925  0.73114100  1
  Cr  Cr763  1  0.97004000  0.69638925  0.98114100  1
  Cr  Cr764  1  0.97004000  0.94638925  0.23114100  1
  Cr  Cr765  1  0.97004000  0.94638925  0.48114100  1
  Cr  Cr766  1  0.97004000  0.94638925  0.73114100  1
  Cr  Cr767  1  0.97004000  0.94638925  0.98114100  1
  Cr  Cr768  1  0.02996325  0.05360250  0.01886475  1
  Cr  Cr769  1  0.02996325  0.05360250  0.26886475  1
  Cr  Cr770  1  0.02996325  0.05360250  0.51886475  1
  Cr  Cr771  1  0.02996325  0.05360250  0.76886475  1
  Cr  Cr772  1  0.02996325  0.30360250  0.01886475  1
  Cr  Cr773  1  0.02996325  0.30360250  0.26886475  1
  Cr  Cr774  1  0.02996325  0.30360250  0.51886475  1
  Cr  Cr775  1  0.02996325  0.30360250  0.76886475  1
  Cr  Cr776  1  0.02996325  0.55360250  0.01886475  1
  Cr  Cr777  1  0.02996325  0.55360250  0.26886475  1
  Cr  Cr778  1  0.02996325  0.55360250  0.51886475  1
  Cr  Cr779  1  0.02996325  0.55360250  0.76886475  1
  Cr  Cr780  1  0.02996325  0.80360250  0.01886475  1
  Cr  Cr781  1  0.02996325  0.80360250  0.26886475  1
  Cr  Cr782  1  0.02996325  0.80360250  0.51886475  1
  Cr  Cr783  1  0.02996325  0.80360250  0.76886475  1
  Cr  Cr784  1  0.27996325  0.05360250  0.01886475  1
  Cr  Cr785  1  0.27996325  0.05360250  0.26886475  1
  Cr  Cr786  1  0.27996325  0.05360250  0.51886475  1
  Cr  Cr787  1  0.27996325  0.05360250  0.76886475  1
  Cr  Cr788  1  0.27996325  0.30360250  0.01886475  1
  Cr  Cr789  1  0.27996325  0.30360250  0.26886475  1
  Cr  Cr790  1  0.27996325  0.30360250  0.51886475  1
  Cr  Cr791  1  0.27996325  0.30360250  0.76886475  1
  Cr  Cr792  1  0.27996325  0.55360250  0.01886475  1
  Cr  Cr793  1  0.27996325  0.55360250  0.26886475  1
  Cr  Cr794  1  0.27996325  0.55360250  0.51886475  1
  Cr  Cr795  1  0.27996325  0.55360250  0.76886475  1
  Cr  Cr796  1  0.27996325  0.80360250  0.01886475  1
  Cr  Cr797  1  0.27996325  0.80360250  0.26886475  1
  Cr  Cr798  1  0.27996325  0.80360250  0.51886475  1
  Cr  Cr799  1  0.27996325  0.80360250  0.76886475  1
  Cr  Cr800  1  0.52996325  0.05360250  0.01886475  1
  Cr  Cr801  1  0.52996325  0.05360250  0.26886475  1
  Cr  Cr802  1  0.52996325  0.05360250  0.51886475  1
  Cr  Cr803  1  0.52996325  0.05360250  0.76886475  1
  Cr  Cr804  1  0.52996325  0.30360250  0.01886475  1
  Cr  Cr805  1  0.52996325  0.30360250  0.26886475  1
  Cr  Cr806  1  0.52996325  0.30360250  0.51886475  1
  Cr  Cr807  1  0.52996325  0.30360250  0.76886475  1
  Cr  Cr808  1  0.52996325  0.55360250  0.01886475  1
  Cr  Cr809  1  0.52996325  0.55360250  0.26886475  1
  Cr  Cr810  1  0.52996325  0.55360250  0.51886475  1
  Cr  Cr811  1  0.52996325  0.55360250  0.76886475  1
  Cr  Cr812  1  0.52996325  0.80360250  0.01886475  1
  Cr  Cr813  1  0.52996325  0.80360250  0.26886475  1
  Cr  Cr814  1  0.52996325  0.80360250  0.51886475  1
  Cr  Cr815  1  0.52996325  0.80360250  0.76886475  1
  Cr  Cr816  1  0.77996325  0.05360250  0.01886475  1
  Cr  Cr817  1  0.77996325  0.05360250  0.26886475  1
  Cr  Cr818  1  0.77996325  0.05360250  0.51886475  1
  Cr  Cr819  1  0.77996325  0.05360250  0.76886475  1
  Cr  Cr820  1  0.77996325  0.30360250  0.01886475  1
  Cr  Cr821  1  0.77996325  0.30360250  0.26886475  1
  Cr  Cr822  1  0.77996325  0.30360250  0.51886475  1
  Cr  Cr823  1  0.77996325  0.30360250  0.76886475  1
  Cr  Cr824  1  0.77996325  0.55360250  0.01886475  1
  Cr  Cr825  1  0.77996325  0.55360250  0.26886475  1
  Cr  Cr826  1  0.77996325  0.55360250  0.51886475  1
  Cr  Cr827  1  0.77996325  0.55360250  0.76886475  1
  Cr  Cr828  1  0.77996325  0.80360250  0.01886475  1
  Cr  Cr829  1  0.77996325  0.80360250  0.26886475  1
  Cr  Cr830  1  0.77996325  0.80360250  0.51886475  1
  Cr  Cr831  1  0.77996325  0.80360250  0.76886475  1
  Cr  Cr832  1  0.15487750  0.17845775  0.14376575  1
  Cr  Cr833  1  0.15487750  0.17845775  0.39376575  1
  Cr  Cr834  1  0.15487750  0.17845775  0.64376575  1
  Cr  Cr835  1  0.15487750  0.17845775  0.89376575  1
  Cr  Cr836  1  0.15487750  0.42845775  0.14376575  1
  Cr  Cr837  1  0.15487750  0.42845775  0.39376575  1
  Cr  Cr838  1  0.15487750  0.42845775  0.64376575  1
  Cr  Cr839  1  0.15487750  0.42845775  0.89376575  1
  Cr  Cr840  1  0.15487750  0.67845775  0.14376575  1
  Cr  Cr841  1  0.15487750  0.67845775  0.39376575  1
  Cr  Cr842  1  0.15487750  0.67845775  0.64376575  1
  Cr  Cr843  1  0.15487750  0.67845775  0.89376575  1
  Cr  Cr844  1  0.15487750  0.92845775  0.14376575  1
  Cr  Cr845  1  0.15487750  0.92845775  0.39376575  1
  Cr  Cr846  1  0.15487750  0.92845775  0.64376575  1
  Cr  Cr847  1  0.15487750  0.92845775  0.89376575  1
  Cr  Cr848  1  0.40487750  0.17845775  0.14376575  1
  Cr  Cr849  1  0.40487750  0.17845775  0.39376575  1
  Cr  Cr850  1  0.40487750  0.17845775  0.64376575  1
  Cr  Cr851  1  0.40487750  0.17845775  0.89376575  1
  Cr  Cr852  1  0.40487750  0.42845775  0.14376575  1
  Cr  Cr853  1  0.40487750  0.42845775  0.39376575  1
  Cr  Cr854  1  0.40487750  0.42845775  0.64376575  1
  Cr  Cr855  1  0.40487750  0.42845775  0.89376575  1
  Cr  Cr856  1  0.40487750  0.67845775  0.14376575  1
  Cr  Cr857  1  0.40487750  0.67845775  0.39376575  1
  Cr  Cr858  1  0.40487750  0.67845775  0.64376575  1
  Cr  Cr859  1  0.40487750  0.67845775  0.89376575  1
  Cr  Cr860  1  0.40487750  0.92845775  0.14376575  1
  Cr  Cr861  1  0.40487750  0.92845775  0.39376575  1
  Cr  Cr862  1  0.40487750  0.92845775  0.64376575  1
  Cr  Cr863  1  0.40487750  0.92845775  0.89376575  1
  Cr  Cr864  1  0.65487750  0.17845775  0.14376575  1
  Cr  Cr865  1  0.65487750  0.17845775  0.39376575  1
  Cr  Cr866  1  0.65487750  0.17845775  0.64376575  1
  Cr  Cr867  1  0.65487750  0.17845775  0.89376575  1
  Cr  Cr868  1  0.65487750  0.42845775  0.14376575  1
  Cr  Cr869  1  0.65487750  0.42845775  0.39376575  1
  Cr  Cr870  1  0.65487750  0.42845775  0.64376575  1
  Cr  Cr871  1  0.65487750  0.42845775  0.89376575  1
  Cr  Cr872  1  0.65487750  0.67845775  0.14376575  1
  Cr  Cr873  1  0.65487750  0.67845775  0.39376575  1
  Cr  Cr874  1  0.65487750  0.67845775  0.64376575  1
  Cr  Cr875  1  0.65487750  0.67845775  0.89376575  1
  Cr  Cr876  1  0.65487750  0.92845775  0.14376575  1
  Cr  Cr877  1  0.65487750  0.92845775  0.39376575  1
  Cr  Cr878  1  0.65487750  0.92845775  0.64376575  1
  Cr  Cr879  1  0.65487750  0.92845775  0.89376575  1
  Cr  Cr880  1  0.90487750  0.17845775  0.14376575  1
  Cr  Cr881  1  0.90487750  0.17845775  0.39376575  1
  Cr  Cr882  1  0.90487750  0.17845775  0.64376575  1
  Cr  Cr883  1  0.90487750  0.17845775  0.89376575  1
  Cr  Cr884  1  0.90487750  0.42845775  0.14376575  1
  Cr  Cr885  1  0.90487750  0.42845775  0.39376575  1
  Cr  Cr886  1  0.90487750  0.42845775  0.64376575  1
  Cr  Cr887  1  0.90487750  0.42845775  0.89376575  1
  Cr  Cr888  1  0.90487750  0.67845775  0.14376575  1
  Cr  Cr889  1  0.90487750  0.67845775  0.39376575  1
  Cr  Cr890  1  0.90487750  0.67845775  0.64376575  1
  Cr  Cr891  1  0.90487750  0.67845775  0.89376575  1
  Cr  Cr892  1  0.90487750  0.92845775  0.14376575  1
  Cr  Cr893  1  0.90487750  0.92845775  0.39376575  1
  Cr  Cr894  1  0.90487750  0.92845775  0.64376575  1
  Cr  Cr895  1  0.90487750  0.92845775  0.89376575  1
  Si  Si896  1  0.09445325  0.02821300  0.18585850  1
  Si  Si897  1  0.09445325  0.02821300  0.43585850  1
  Si  Si898  1  0.09445325  0.02821300  0.68585850  1
  Si  Si899  1  0.09445325  0.02821300  0.93585850  1
  Si  Si900  1  0.09445325  0.27821300  0.18585850  1
  Si  Si901  1  0.09445325  0.27821300  0.43585850  1
  Si  Si902  1  0.09445325  0.27821300  0.68585850  1
  Si  Si903  1  0.09445325  0.27821300  0.93585850  1
  Si  Si904  1  0.09445325  0.52821300  0.18585850  1
  Si  Si905  1  0.09445325  0.52821300  0.43585850  1
  Si  Si906  1  0.09445325  0.52821300  0.68585850  1
  Si  Si907  1  0.09445325  0.52821300  0.93585850  1
  Si  Si908  1  0.09445325  0.77821300  0.18585850  1
  Si  Si909  1  0.09445325  0.77821300  0.43585850  1
  Si  Si910  1  0.09445325  0.77821300  0.68585850  1
  Si  Si911  1  0.09445325  0.77821300  0.93585850  1
  Si  Si912  1  0.34445325  0.02821300  0.18585850  1
  Si  Si913  1  0.34445325  0.02821300  0.43585850  1
  Si  Si914  1  0.34445325  0.02821300  0.68585850  1
  Si  Si915  1  0.34445325  0.02821300  0.93585850  1
  Si  Si916  1  0.34445325  0.27821300  0.18585850  1
  Si  Si917  1  0.34445325  0.27821300  0.43585850  1
  Si  Si918  1  0.34445325  0.27821300  0.68585850  1
  Si  Si919  1  0.34445325  0.27821300  0.93585850  1
  Si  Si920  1  0.34445325  0.52821300  0.18585850  1
  Si  Si921  1  0.34445325  0.52821300  0.43585850  1
  Si  Si922  1  0.34445325  0.52821300  0.68585850  1
  Si  Si923  1  0.34445325  0.52821300  0.93585850  1
  Si  Si924  1  0.34445325  0.77821300  0.18585850  1
  Si  Si925  1  0.34445325  0.77821300  0.43585850  1
  Si  Si926  1  0.34445325  0.77821300  0.68585850  1
  Si  Si927  1  0.34445325  0.77821300  0.93585850  1
  Si  Si928  1  0.59445325  0.02821300  0.18585850  1
  Si  Si929  1  0.59445325  0.02821300  0.43585850  1
  Si  Si930  1  0.59445325  0.02821300  0.68585850  1
  Si  Si931  1  0.59445325  0.02821300  0.93585850  1
  Si  Si932  1  0.59445325  0.27821300  0.18585850  1
  Si  Si933  1  0.59445325  0.27821300  0.43585850  1
  Si  Si934  1  0.59445325  0.27821300  0.68585850  1
  Si  Si935  1  0.59445325  0.27821300  0.93585850  1
  Si  Si936  1  0.59445325  0.52821300  0.18585850  1
  Si  Si937  1  0.59445325  0.52821300  0.43585850  1
  Si  Si938  1  0.59445325  0.52821300  0.68585850  1
  Si  Si939  1  0.59445325  0.52821300  0.93585850  1
  Si  Si940  1  0.59445325  0.77821300  0.18585850  1
  Si  Si941  1  0.59445325  0.77821300  0.43585850  1
  Si  Si942  1  0.59445325  0.77821300  0.68585850  1
  Si  Si943  1  0.59445325  0.77821300  0.93585850  1
  Si  Si944  1  0.84445325  0.02821300  0.18585850  1
  Si  Si945  1  0.84445325  0.02821300  0.43585850  1
  Si  Si946  1  0.84445325  0.02821300  0.68585850  1
  Si  Si947  1  0.84445325  0.02821300  0.93585850  1
  Si  Si948  1  0.84445325  0.27821300  0.18585850  1
  Si  Si949  1  0.84445325  0.27821300  0.43585850  1
  Si  Si950  1  0.84445325  0.27821300  0.68585850  1
  Si  Si951  1  0.84445325  0.27821300  0.93585850  1
  Si  Si952  1  0.84445325  0.52821300  0.18585850  1
  Si  Si953  1  0.84445325  0.52821300  0.43585850  1
  Si  Si954  1  0.84445325  0.52821300  0.68585850  1
  Si  Si955  1  0.84445325  0.52821300  0.93585850  1
  Si  Si956  1  0.84445325  0.77821300  0.18585850  1
  Si  Si957  1  0.84445325  0.77821300  0.43585850  1
  Si  Si958  1  0.84445325  0.77821300  0.68585850  1
  Si  Si959  1  0.84445325  0.77821300  0.93585850  1
  Si  Si960  1  0.21954725  0.15321375  0.06080000  1
  Si  Si961  1  0.21954725  0.15321375  0.31080000  1
  Si  Si962  1  0.21954725  0.15321375  0.56080000  1
  Si  Si963  1  0.21954725  0.15321375  0.81080000  1
  Si  Si964  1  0.21954725  0.40321375  0.06080000  1
  Si  Si965  1  0.21954725  0.40321375  0.31080000  1
  Si  Si966  1  0.21954725  0.40321375  0.56080000  1
  Si  Si967  1  0.21954725  0.40321375  0.81080000  1
  Si  Si968  1  0.21954725  0.65321375  0.06080000  1
  Si  Si969  1  0.21954725  0.65321375  0.31080000  1
  Si  Si970  1  0.21954725  0.65321375  0.56080000  1
  Si  Si971  1  0.21954725  0.65321375  0.81080000  1
  Si  Si972  1  0.21954725  0.90321375  0.06080000  1
  Si  Si973  1  0.21954725  0.90321375  0.31080000  1
  Si  Si974  1  0.21954725  0.90321375  0.56080000  1
  Si  Si975  1  0.21954725  0.90321375  0.81080000  1
  Si  Si976  1  0.46954725  0.15321375  0.06080000  1
  Si  Si977  1  0.46954725  0.15321375  0.31080000  1
  Si  Si978  1  0.46954725  0.15321375  0.56080000  1
  Si  Si979  1  0.46954725  0.15321375  0.81080000  1
  Si  Si980  1  0.46954725  0.40321375  0.06080000  1
  Si  Si981  1  0.46954725  0.40321375  0.31080000  1
  Si  Si982  1  0.46954725  0.40321375  0.56080000  1
  Si  Si983  1  0.46954725  0.40321375  0.81080000  1
  Si  Si984  1  0.46954725  0.65321375  0.06080000  1
  Si  Si985  1  0.46954725  0.65321375  0.31080000  1
  Si  Si986  1  0.46954725  0.65321375  0.56080000  1
  Si  Si987  1  0.46954725  0.65321375  0.81080000  1
  Si  Si988  1  0.46954725  0.90321375  0.06080000  1
  Si  Si989  1  0.46954725  0.90321375  0.31080000  1
  Si  Si990  1  0.46954725  0.90321375  0.56080000  1
  Si  Si991  1  0.46954725  0.90321375  0.81080000  1
  Si  Si992  1  0.71954725  0.15321375  0.06080000  1
  Si  Si993  1  0.71954725  0.15321375  0.31080000  1
  Si  Si994  1  0.71954725  0.15321375  0.56080000  1
  Si  Si995  1  0.71954725  0.15321375  0.81080000  1
  Si  Si996  1  0.71954725  0.40321375  0.06080000  1
  Si  Si997  1  0.71954725  0.40321375  0.31080000  1
  Si  Si998  1  0.71954725  0.40321375  0.56080000  1
  Si  Si999  1  0.71954725  0.40321375  0.81080000  1
  Si  Si1000  1  0.71954725  0.65321375  0.06080000  1
  Si  Si1001  1  0.71954725  0.65321375  0.31080000  1
  Si  Si1002  1  0.71954725  0.65321375  0.56080000  1
  Si  Si1003  1  0.71954725  0.65321375  0.81080000  1
  Si  Si1004  1  0.71954725  0.90321375  0.06080000  1
  Si  Si1005  1  0.71954725  0.90321375  0.31080000  1
  Si  Si1006  1  0.71954725  0.90321375  0.56080000  1
  Si  Si1007  1  0.71954725  0.90321375  0.81080000  1
  Si  Si1008  1  0.96954725  0.15321375  0.06080000  1
  Si  Si1009  1  0.96954725  0.15321375  0.31080000  1
  Si  Si1010  1  0.96954725  0.15321375  0.56080000  1
  Si  Si1011  1  0.96954725  0.15321375  0.81080000  1
  Si  Si1012  1  0.96954725  0.40321375  0.06080000  1
  Si  Si1013  1  0.96954725  0.40321375  0.31080000  1
  Si  Si1014  1  0.96954725  0.40321375  0.56080000  1
  Si  Si1015  1  0.96954725  0.40321375  0.81080000  1
  Si  Si1016  1  0.96954725  0.65321375  0.06080000  1
  Si  Si1017  1  0.96954725  0.65321375  0.31080000  1
  Si  Si1018  1  0.96954725  0.65321375  0.56080000  1
  Si  Si1019  1  0.96954725  0.65321375  0.81080000  1
  Si  Si1020  1  0.96954725  0.90321375  0.06080000  1
  Si  Si1021  1  0.96954725  0.90321375  0.31080000  1
  Si  Si1022  1  0.96954725  0.90321375  0.56080000  1
  Si  Si1023  1  0.96954725  0.90321375  0.81080000  1
  Si  Si1024  1  0.03044175  0.09678800  0.18921025  1
  Si  Si1025  1  0.03044175  0.09678800  0.43921025  1
  Si  Si1026  1  0.03044175  0.09678800  0.68921025  1
  Si  Si1027  1  0.03044175  0.09678800  0.93921025  1
  Si  Si1028  1  0.03044175  0.34678800  0.18921025  1
  Si  Si1029  1  0.03044175  0.34678800  0.43921025  1
  Si  Si1030  1  0.03044175  0.34678800  0.68921025  1
  Si  Si1031  1  0.03044175  0.34678800  0.93921025  1
  Si  Si1032  1  0.03044175  0.59678800  0.18921025  1
  Si  Si1033  1  0.03044175  0.59678800  0.43921025  1
  Si  Si1034  1  0.03044175  0.59678800  0.68921025  1
  Si  Si1035  1  0.03044175  0.59678800  0.93921025  1
  Si  Si1036  1  0.03044175  0.84678800  0.18921025  1
  Si  Si1037  1  0.03044175  0.84678800  0.43921025  1
  Si  Si1038  1  0.03044175  0.84678800  0.68921025  1
  Si  Si1039  1  0.03044175  0.84678800  0.93921025  1
  Si  Si1040  1  0.28044175  0.09678800  0.18921025  1
  Si  Si1041  1  0.28044175  0.09678800  0.43921025  1
  Si  Si1042  1  0.28044175  0.09678800  0.68921025  1
  Si  Si1043  1  0.28044175  0.09678800  0.93921025  1
  Si  Si1044  1  0.28044175  0.34678800  0.18921025  1
  Si  Si1045  1  0.28044175  0.34678800  0.43921025  1
  Si  Si1046  1  0.28044175  0.34678800  0.68921025  1
  Si  Si1047  1  0.28044175  0.34678800  0.93921025  1
  Si  Si1048  1  0.28044175  0.59678800  0.18921025  1
  Si  Si1049  1  0.28044175  0.59678800  0.43921025  1
  Si  Si1050  1  0.28044175  0.59678800  0.68921025  1
  Si  Si1051  1  0.28044175  0.59678800  0.93921025  1
  Si  Si1052  1  0.28044175  0.84678800  0.18921025  1
  Si  Si1053  1  0.28044175  0.84678800  0.43921025  1
  Si  Si1054  1  0.28044175  0.84678800  0.68921025  1
  Si  Si1055  1  0.28044175  0.84678800  0.93921025  1
  Si  Si1056  1  0.53044175  0.09678800  0.18921025  1
  Si  Si1057  1  0.53044175  0.09678800  0.43921025  1
  Si  Si1058  1  0.53044175  0.09678800  0.68921025  1
  Si  Si1059  1  0.53044175  0.09678800  0.93921025  1
  Si  Si1060  1  0.53044175  0.34678800  0.18921025  1
  Si  Si1061  1  0.53044175  0.34678800  0.43921025  1
  Si  Si1062  1  0.53044175  0.34678800  0.68921025  1
  Si  Si1063  1  0.53044175  0.34678800  0.93921025  1
  Si  Si1064  1  0.53044175  0.59678800  0.18921025  1
  Si  Si1065  1  0.53044175  0.59678800  0.43921025  1
  Si  Si1066  1  0.53044175  0.59678800  0.68921025  1
  Si  Si1067  1  0.53044175  0.59678800  0.93921025  1
  Si  Si1068  1  0.53044175  0.84678800  0.18921025  1
  Si  Si1069  1  0.53044175  0.84678800  0.43921025  1
  Si  Si1070  1  0.53044175  0.84678800  0.68921025  1
  Si  Si1071  1  0.53044175  0.84678800  0.93921025  1
  Si  Si1072  1  0.78044175  0.09678800  0.18921025  1
  Si  Si1073  1  0.78044175  0.09678800  0.43921025  1
  Si  Si1074  1  0.78044175  0.09678800  0.68921025  1
  Si  Si1075  1  0.78044175  0.09678800  0.93921025  1
  Si  Si1076  1  0.78044175  0.34678800  0.18921025  1
  Si  Si1077  1  0.78044175  0.34678800  0.43921025  1
  Si  Si1078  1  0.78044175  0.34678800  0.68921025  1
  Si  Si1079  1  0.78044175  0.34678800  0.93921025  1
  Si  Si1080  1  0.78044175  0.59678800  0.18921025  1
  Si  Si1081  1  0.78044175  0.59678800  0.43921025  1
  Si  Si1082  1  0.78044175  0.59678800  0.68921025  1
  Si  Si1083  1  0.78044175  0.59678800  0.93921025  1
  Si  Si1084  1  0.78044175  0.84678800  0.18921025  1
  Si  Si1085  1  0.78044175  0.84678800  0.43921025  1
  Si  Si1086  1  0.78044175  0.84678800  0.68921025  1
  Si  Si1087  1  0.78044175  0.84678800  0.93921025  1
  Si  Si1088  1  0.15555900  0.22178950  0.06413350  1
  Si  Si1089  1  0.15555900  0.22178950  0.31413350  1
  Si  Si1090  1  0.15555900  0.22178950  0.56413350  1
  Si  Si1091  1  0.15555900  0.22178950  0.81413350  1
  Si  Si1092  1  0.15555900  0.47178950  0.06413350  1
  Si  Si1093  1  0.15555900  0.47178950  0.31413350  1
  Si  Si1094  1  0.15555900  0.47178950  0.56413350  1
  Si  Si1095  1  0.15555900  0.47178950  0.81413350  1
  Si  Si1096  1  0.15555900  0.72178950  0.06413350  1
  Si  Si1097  1  0.15555900  0.72178950  0.31413350  1
  Si  Si1098  1  0.15555900  0.72178950  0.56413350  1
  Si  Si1099  1  0.15555900  0.72178950  0.81413350  1
  Si  Si1100  1  0.15555900  0.97178950  0.06413350  1
  Si  Si1101  1  0.15555900  0.97178950  0.31413350  1
  Si  Si1102  1  0.15555900  0.97178950  0.56413350  1
  Si  Si1103  1  0.15555900  0.97178950  0.81413350  1
  Si  Si1104  1  0.40555900  0.22178950  0.06413350  1
  Si  Si1105  1  0.40555900  0.22178950  0.31413350  1
  Si  Si1106  1  0.40555900  0.22178950  0.56413350  1
  Si  Si1107  1  0.40555900  0.22178950  0.81413350  1
  Si  Si1108  1  0.40555900  0.47178950  0.06413350  1
  Si  Si1109  1  0.40555900  0.47178950  0.31413350  1
  Si  Si1110  1  0.40555900  0.47178950  0.56413350  1
  Si  Si1111  1  0.40555900  0.47178950  0.81413350  1
  Si  Si1112  1  0.40555900  0.72178950  0.06413350  1
  Si  Si1113  1  0.40555900  0.72178950  0.31413350  1
  Si  Si1114  1  0.40555900  0.72178950  0.56413350  1
  Si  Si1115  1  0.40555900  0.72178950  0.81413350  1
  Si  Si1116  1  0.40555900  0.97178950  0.06413350  1
  Si  Si1117  1  0.40555900  0.97178950  0.31413350  1
  Si  Si1118  1  0.40555900  0.97178950  0.56413350  1
  Si  Si1119  1  0.40555900  0.97178950  0.81413350  1
  Si  Si1120  1  0.65555900  0.22178950  0.06413350  1
  Si  Si1121  1  0.65555900  0.22178950  0.31413350  1
  Si  Si1122  1  0.65555900  0.22178950  0.56413350  1
  Si  Si1123  1  0.65555900  0.22178950  0.81413350  1
  Si  Si1124  1  0.65555900  0.47178950  0.06413350  1
  Si  Si1125  1  0.65555900  0.47178950  0.31413350  1
  Si  Si1126  1  0.65555900  0.47178950  0.56413350  1
  Si  Si1127  1  0.65555900  0.47178950  0.81413350  1
  Si  Si1128  1  0.65555900  0.72178950  0.06413350  1
  Si  Si1129  1  0.65555900  0.72178950  0.31413350  1
  Si  Si1130  1  0.65555900  0.72178950  0.56413350  1
  Si  Si1131  1  0.65555900  0.72178950  0.81413350  1
  Si  Si1132  1  0.65555900  0.97178950  0.06413350  1
  Si  Si1133  1  0.65555900  0.97178950  0.31413350  1
  Si  Si1134  1  0.65555900  0.97178950  0.56413350  1
  Si  Si1135  1  0.65555900  0.97178950  0.81413350  1
  Si  Si1136  1  0.90555900  0.22178950  0.06413350  1
  Si  Si1137  1  0.90555900  0.22178950  0.31413350  1
  Si  Si1138  1  0.90555900  0.22178950  0.56413350  1
  Si  Si1139  1  0.90555900  0.22178950  0.81413350  1
  Si  Si1140  1  0.90555900  0.47178950  0.06413350  1
  Si  Si1141  1  0.90555900  0.47178950  0.31413350  1
  Si  Si1142  1  0.90555900  0.47178950  0.56413350  1
  Si  Si1143  1  0.90555900  0.47178950  0.81413350  1
  Si  Si1144  1  0.90555900  0.72178950  0.06413350  1
  Si  Si1145  1  0.90555900  0.72178950  0.31413350  1
  Si  Si1146  1  0.90555900  0.72178950  0.56413350  1
  Si  Si1147  1  0.90555900  0.72178950  0.81413350  1
  Si  Si1148  1  0.90555900  0.97178950  0.06413350  1
  Si  Si1149  1  0.90555900  0.97178950  0.31413350  1
  Si  Si1150  1  0.90555900  0.97178950  0.56413350  1
  Si  Si1151  1  0.90555900  0.97178950  0.81413350  1
  Si  Si1152  1  0.17237250  0.02588000  0.07281800  1
  Si  Si1153  1  0.17237250  0.02588000  0.32281800  1
  Si  Si1154  1  0.17237250  0.02588000  0.57281800  1
  Si  Si1155  1  0.17237250  0.02588000  0.82281800  1
  Si  Si1156  1  0.17237250  0.27588000  0.07281800  1
  Si  Si1157  1  0.17237250  0.27588000  0.32281800  1
  Si  Si1158  1  0.17237250  0.27588000  0.57281800  1
  Si  Si1159  1  0.17237250  0.27588000  0.82281800  1
  Si  Si1160  1  0.17237250  0.52588000  0.07281800  1
  Si  Si1161  1  0.17237250  0.52588000  0.32281800  1
  Si  Si1162  1  0.17237250  0.52588000  0.57281800  1
  Si  Si1163  1  0.17237250  0.52588000  0.82281800  1
  Si  Si1164  1  0.17237250  0.77588000  0.07281800  1
  Si  Si1165  1  0.17237250  0.77588000  0.32281800  1
  Si  Si1166  1  0.17237250  0.77588000  0.57281800  1
  Si  Si1167  1  0.17237250  0.77588000  0.82281800  1
  Si  Si1168  1  0.42237250  0.02588000  0.07281800  1
  Si  Si1169  1  0.42237250  0.02588000  0.32281800  1
  Si  Si1170  1  0.42237250  0.02588000  0.57281800  1
  Si  Si1171  1  0.42237250  0.02588000  0.82281800  1
  Si  Si1172  1  0.42237250  0.27588000  0.07281800  1
  Si  Si1173  1  0.42237250  0.27588000  0.32281800  1
  Si  Si1174  1  0.42237250  0.27588000  0.57281800  1
  Si  Si1175  1  0.42237250  0.27588000  0.82281800  1
  Si  Si1176  1  0.42237250  0.52588000  0.07281800  1
  Si  Si1177  1  0.42237250  0.52588000  0.32281800  1
  Si  Si1178  1  0.42237250  0.52588000  0.57281800  1
  Si  Si1179  1  0.42237250  0.52588000  0.82281800  1
  Si  Si1180  1  0.42237250  0.77588000  0.07281800  1
  Si  Si1181  1  0.42237250  0.77588000  0.32281800  1
  Si  Si1182  1  0.42237250  0.77588000  0.57281800  1
  Si  Si1183  1  0.42237250  0.77588000  0.82281800  1
  Si  Si1184  1  0.67237250  0.02588000  0.07281800  1
  Si  Si1185  1  0.67237250  0.02588000  0.32281800  1
  Si  Si1186  1  0.67237250  0.02588000  0.57281800  1
  Si  Si1187  1  0.67237250  0.02588000  0.82281800  1
  Si  Si1188  1  0.67237250  0.27588000  0.07281800  1
  Si  Si1189  1  0.67237250  0.27588000  0.32281800  1
  Si  Si1190  1  0.67237250  0.27588000  0.57281800  1
  Si  Si1191  1  0.67237250  0.27588000  0.82281800  1
  Si  Si1192  1  0.67237250  0.52588000  0.07281800  1
  Si  Si1193  1  0.67237250  0.52588000  0.32281800  1
  Si  Si1194  1  0.67237250  0.52588000  0.57281800  1
  Si  Si1195  1  0.67237250  0.52588000  0.82281800  1
  Si  Si1196  1  0.67237250  0.77588000  0.07281800  1
  Si  Si1197  1  0.67237250  0.77588000  0.32281800  1
  Si  Si1198  1  0.67237250  0.77588000  0.57281800  1
  Si  Si1199  1  0.67237250  0.77588000  0.82281800  1
  Si  Si1200  1  0.92237250  0.02588000  0.07281800  1
  Si  Si1201  1  0.92237250  0.02588000  0.32281800  1
  Si  Si1202  1  0.92237250  0.02588000  0.57281800  1
  Si  Si1203  1  0.92237250  0.02588000  0.82281800  1
  Si  Si1204  1  0.92237250  0.27588000  0.07281800  1
  Si  Si1205  1  0.92237250  0.27588000  0.32281800  1
  Si  Si1206  1  0.92237250  0.27588000  0.57281800  1
  Si  Si1207  1  0.92237250  0.27588000  0.82281800  1
  Si  Si1208  1  0.92237250  0.52588000  0.07281800  1
  Si  Si1209  1  0.92237250  0.52588000  0.32281800  1
  Si  Si1210  1  0.92237250  0.52588000  0.57281800  1
  Si  Si1211  1  0.92237250  0.52588000  0.82281800  1
  Si  Si1212  1  0.92237250  0.77588000  0.07281800  1
  Si  Si1213  1  0.92237250  0.77588000  0.32281800  1
  Si  Si1214  1  0.92237250  0.77588000  0.57281800  1
  Si  Si1215  1  0.92237250  0.77588000  0.82281800  1
  Si  Si1216  1  0.04731850  0.15084625  0.19786225  1
  Si  Si1217  1  0.04731850  0.15084625  0.44786225  1
  Si  Si1218  1  0.04731850  0.15084625  0.69786225  1
  Si  Si1219  1  0.04731850  0.15084625  0.94786225  1
  Si  Si1220  1  0.04731850  0.40084625  0.19786225  1
  Si  Si1221  1  0.04731850  0.40084625  0.44786225  1
  Si  Si1222  1  0.04731850  0.40084625  0.69786225  1
  Si  Si1223  1  0.04731850  0.40084625  0.94786225  1
  Si  Si1224  1  0.04731850  0.65084625  0.19786225  1
  Si  Si1225  1  0.04731850  0.65084625  0.44786225  1
  Si  Si1226  1  0.04731850  0.65084625  0.69786225  1
  Si  Si1227  1  0.04731850  0.65084625  0.94786225  1
  Si  Si1228  1  0.04731850  0.90084625  0.19786225  1
  Si  Si1229  1  0.04731850  0.90084625  0.44786225  1
  Si  Si1230  1  0.04731850  0.90084625  0.69786225  1
  Si  Si1231  1  0.04731850  0.90084625  0.94786225  1
  Si  Si1232  1  0.29731850  0.15084625  0.19786225  1
  Si  Si1233  1  0.29731850  0.15084625  0.44786225  1
  Si  Si1234  1  0.29731850  0.15084625  0.69786225  1
  Si  Si1235  1  0.29731850  0.15084625  0.94786225  1
  Si  Si1236  1  0.29731850  0.40084625  0.19786225  1
  Si  Si1237  1  0.29731850  0.40084625  0.44786225  1
  Si  Si1238  1  0.29731850  0.40084625  0.69786225  1
  Si  Si1239  1  0.29731850  0.40084625  0.94786225  1
  Si  Si1240  1  0.29731850  0.65084625  0.19786225  1
  Si  Si1241  1  0.29731850  0.65084625  0.44786225  1
  Si  Si1242  1  0.29731850  0.65084625  0.69786225  1
  Si  Si1243  1  0.29731850  0.65084625  0.94786225  1
  Si  Si1244  1  0.29731850  0.90084625  0.19786225  1
  Si  Si1245  1  0.29731850  0.90084625  0.44786225  1
  Si  Si1246  1  0.29731850  0.90084625  0.69786225  1
  Si  Si1247  1  0.29731850  0.90084625  0.94786225  1
  Si  Si1248  1  0.54731850  0.15084625  0.19786225  1
  Si  Si1249  1  0.54731850  0.15084625  0.44786225  1
  Si  Si1250  1  0.54731850  0.15084625  0.69786225  1
  Si  Si1251  1  0.54731850  0.15084625  0.94786225  1
  Si  Si1252  1  0.54731850  0.40084625  0.19786225  1
  Si  Si1253  1  0.54731850  0.40084625  0.44786225  1
  Si  Si1254  1  0.54731850  0.40084625  0.69786225  1
  Si  Si1255  1  0.54731850  0.40084625  0.94786225  1
  Si  Si1256  1  0.54731850  0.65084625  0.19786225  1
  Si  Si1257  1  0.54731850  0.65084625  0.44786225  1
  Si  Si1258  1  0.54731850  0.65084625  0.69786225  1
  Si  Si1259  1  0.54731850  0.65084625  0.94786225  1
  Si  Si1260  1  0.54731850  0.90084625  0.19786225  1
  Si  Si1261  1  0.54731850  0.90084625  0.44786225  1
  Si  Si1262  1  0.54731850  0.90084625  0.69786225  1
  Si  Si1263  1  0.54731850  0.90084625  0.94786225  1
  Si  Si1264  1  0.79731850  0.15084625  0.19786225  1
  Si  Si1265  1  0.79731850  0.15084625  0.44786225  1
  Si  Si1266  1  0.79731850  0.15084625  0.69786225  1
  Si  Si1267  1  0.79731850  0.15084625  0.94786225  1
  Si  Si1268  1  0.79731850  0.40084625  0.19786225  1
  Si  Si1269  1  0.79731850  0.40084625  0.44786225  1
  Si  Si1270  1  0.79731850  0.40084625  0.69786225  1
  Si  Si1271  1  0.79731850  0.40084625  0.94786225  1
  Si  Si1272  1  0.79731850  0.65084625  0.19786225  1
  Si  Si1273  1  0.79731850  0.65084625  0.44786225  1
  Si  Si1274  1  0.79731850  0.65084625  0.69786225  1
  Si  Si1275  1  0.79731850  0.65084625  0.94786225  1
  Si  Si1276  1  0.79731850  0.90084625  0.19786225  1
  Si  Si1277  1  0.79731850  0.90084625  0.44786225  1
  Si  Si1278  1  0.79731850  0.90084625  0.69786225  1
  Si  Si1279  1  0.79731850  0.90084625  0.94786225  1
  Si  Si1280  1  0.20267900  0.09915525  0.05214100  1
  Si  Si1281  1  0.20267900  0.09915525  0.30214100  1
  Si  Si1282  1  0.20267900  0.09915525  0.55214100  1
  Si  Si1283  1  0.20267900  0.09915525  0.80214100  1
  Si  Si1284  1  0.20267900  0.34915525  0.05214100  1
  Si  Si1285  1  0.20267900  0.34915525  0.30214100  1
  Si  Si1286  1  0.20267900  0.34915525  0.55214100  1
  Si  Si1287  1  0.20267900  0.34915525  0.80214100  1
  Si  Si1288  1  0.20267900  0.59915525  0.05214100  1
  Si  Si1289  1  0.20267900  0.59915525  0.30214100  1
  Si  Si1290  1  0.20267900  0.59915525  0.55214100  1
  Si  Si1291  1  0.20267900  0.59915525  0.80214100  1
  Si  Si1292  1  0.20267900  0.84915525  0.05214100  1
  Si  Si1293  1  0.20267900  0.84915525  0.30214100  1
  Si  Si1294  1  0.20267900  0.84915525  0.55214100  1
  Si  Si1295  1  0.20267900  0.84915525  0.80214100  1
  Si  Si1296  1  0.45267900  0.09915525  0.05214100  1
  Si  Si1297  1  0.45267900  0.09915525  0.30214100  1
  Si  Si1298  1  0.45267900  0.09915525  0.55214100  1
  Si  Si1299  1  0.45267900  0.09915525  0.80214100  1
  Si  Si1300  1  0.45267900  0.34915525  0.05214100  1
  Si  Si1301  1  0.45267900  0.34915525  0.30214100  1
  Si  Si1302  1  0.45267900  0.34915525  0.55214100  1
  Si  Si1303  1  0.45267900  0.34915525  0.80214100  1
  Si  Si1304  1  0.45267900  0.59915525  0.05214100  1
  Si  Si1305  1  0.45267900  0.59915525  0.30214100  1
  Si  Si1306  1  0.45267900  0.59915525  0.55214100  1
  Si  Si1307  1  0.45267900  0.59915525  0.80214100  1
  Si  Si1308  1  0.45267900  0.84915525  0.05214100  1
  Si  Si1309  1  0.45267900  0.84915525  0.30214100  1
  Si  Si1310  1  0.45267900  0.84915525  0.55214100  1
  Si  Si1311  1  0.45267900  0.84915525  0.80214100  1
  Si  Si1312  1  0.70267900  0.09915525  0.05214100  1
  Si  Si1313  1  0.70267900  0.09915525  0.30214100  1
  Si  Si1314  1  0.70267900  0.09915525  0.55214100  1
  Si  Si1315  1  0.70267900  0.09915525  0.80214100  1
  Si  Si1316  1  0.70267900  0.34915525  0.05214100  1
  Si  Si1317  1  0.70267900  0.34915525  0.30214100  1
  Si  Si1318  1  0.70267900  0.34915525  0.55214100  1
  Si  Si1319  1  0.70267900  0.34915525  0.80214100  1
  Si  Si1320  1  0.70267900  0.59915525  0.05214100  1
  Si  Si1321  1  0.70267900  0.59915525  0.30214100  1
  Si  Si1322  1  0.70267900  0.59915525  0.55214100  1
  Si  Si1323  1  0.70267900  0.59915525  0.80214100  1
  Si  Si1324  1  0.70267900  0.84915525  0.05214100  1
  Si  Si1325  1  0.70267900  0.84915525  0.30214100  1
  Si  Si1326  1  0.70267900  0.84915525  0.55214100  1
  Si  Si1327  1  0.70267900  0.84915525  0.80214100  1
  Si  Si1328  1  0.95267900  0.09915525  0.05214100  1
  Si  Si1329  1  0.95267900  0.09915525  0.30214100  1
  Si  Si1330  1  0.95267900  0.09915525  0.55214100  1
  Si  Si1331  1  0.95267900  0.09915525  0.80214100  1
  Si  Si1332  1  0.95267900  0.34915525  0.05214100  1
  Si  Si1333  1  0.95267900  0.34915525  0.30214100  1
  Si  Si1334  1  0.95267900  0.34915525  0.55214100  1
  Si  Si1335  1  0.95267900  0.34915525  0.80214100  1
  Si  Si1336  1  0.95267900  0.59915525  0.05214100  1
  Si  Si1337  1  0.95267900  0.59915525  0.30214100  1
  Si  Si1338  1  0.95267900  0.59915525  0.55214100  1
  Si  Si1339  1  0.95267900  0.59915525  0.80214100  1
  Si  Si1340  1  0.95267900  0.84915525  0.05214100  1
  Si  Si1341  1  0.95267900  0.84915525  0.30214100  1
  Si  Si1342  1  0.95267900  0.84915525  0.55214100  1
  Si  Si1343  1  0.95267900  0.84915525  0.80214100  1
  Si  Si1344  1  0.07763100  0.22412100  0.17717775  1
  Si  Si1345  1  0.07763100  0.22412100  0.42717775  1
  Si  Si1346  1  0.07763100  0.22412100  0.67717775  1
  Si  Si1347  1  0.07763100  0.22412100  0.92717775  1
  Si  Si1348  1  0.07763100  0.47412100  0.17717775  1
  Si  Si1349  1  0.07763100  0.47412100  0.42717775  1
  Si  Si1350  1  0.07763100  0.47412100  0.67717775  1
  Si  Si1351  1  0.07763100  0.47412100  0.92717775  1
  Si  Si1352  1  0.07763100  0.72412100  0.17717775  1
  Si  Si1353  1  0.07763100  0.72412100  0.42717775  1
  Si  Si1354  1  0.07763100  0.72412100  0.67717775  1
  Si  Si1355  1  0.07763100  0.72412100  0.92717775  1
  Si  Si1356  1  0.07763100  0.97412100  0.17717775  1
  Si  Si1357  1  0.07763100  0.97412100  0.42717775  1
  Si  Si1358  1  0.07763100  0.97412100  0.67717775  1
  Si  Si1359  1  0.07763100  0.97412100  0.92717775  1
  Si  Si1360  1  0.32763100  0.22412100  0.17717775  1
  Si  Si1361  1  0.32763100  0.22412100  0.42717775  1
  Si  Si1362  1  0.32763100  0.22412100  0.67717775  1
  Si  Si1363  1  0.32763100  0.22412100  0.92717775  1
  Si  Si1364  1  0.32763100  0.47412100  0.17717775  1
  Si  Si1365  1  0.32763100  0.47412100  0.42717775  1
  Si  Si1366  1  0.32763100  0.47412100  0.67717775  1
  Si  Si1367  1  0.32763100  0.47412100  0.92717775  1
  Si  Si1368  1  0.32763100  0.72412100  0.17717775  1
  Si  Si1369  1  0.32763100  0.72412100  0.42717775  1
  Si  Si1370  1  0.32763100  0.72412100  0.67717775  1
  Si  Si1371  1  0.32763100  0.72412100  0.92717775  1
  Si  Si1372  1  0.32763100  0.97412100  0.17717775  1
  Si  Si1373  1  0.32763100  0.97412100  0.42717775  1
  Si  Si1374  1  0.32763100  0.97412100  0.67717775  1
  Si  Si1375  1  0.32763100  0.97412100  0.92717775  1
  Si  Si1376  1  0.57763100  0.22412100  0.17717775  1
  Si  Si1377  1  0.57763100  0.22412100  0.42717775  1
  Si  Si1378  1  0.57763100  0.22412100  0.67717775  1
  Si  Si1379  1  0.57763100  0.22412100  0.92717775  1
  Si  Si1380  1  0.57763100  0.47412100  0.17717775  1
  Si  Si1381  1  0.57763100  0.47412100  0.42717775  1
  Si  Si1382  1  0.57763100  0.47412100  0.67717775  1
  Si  Si1383  1  0.57763100  0.47412100  0.92717775  1
  Si  Si1384  1  0.57763100  0.72412100  0.17717775  1
  Si  Si1385  1  0.57763100  0.72412100  0.42717775  1
  Si  Si1386  1  0.57763100  0.72412100  0.67717775  1
  Si  Si1387  1  0.57763100  0.72412100  0.92717775  1
  Si  Si1388  1  0.57763100  0.97412100  0.17717775  1
  Si  Si1389  1  0.57763100  0.97412100  0.42717775  1
  Si  Si1390  1  0.57763100  0.97412100  0.67717775  1
  Si  Si1391  1  0.57763100  0.97412100  0.92717775  1
  Si  Si1392  1  0.82763100  0.22412100  0.17717775  1
  Si  Si1393  1  0.82763100  0.22412100  0.42717775  1
  Si  Si1394  1  0.82763100  0.22412100  0.67717775  1
  Si  Si1395  1  0.82763100  0.22412100  0.92717775  1
  Si  Si1396  1  0.82763100  0.47412100  0.17717775  1
  Si  Si1397  1  0.82763100  0.47412100  0.42717775  1
  Si  Si1398  1  0.82763100  0.47412100  0.67717775  1
  Si  Si1399  1  0.82763100  0.47412100  0.92717775  1
  Si  Si1400  1  0.82763100  0.72412100  0.17717775  1
  Si  Si1401  1  0.82763100  0.72412100  0.42717775  1
  Si  Si1402  1  0.82763100  0.72412100  0.67717775  1
  Si  Si1403  1  0.82763100  0.72412100  0.92717775  1
  Si  Si1404  1  0.82763100  0.97412100  0.17717775  1
  Si  Si1405  1  0.82763100  0.97412100  0.42717775  1
  Si  Si1406  1  0.82763100  0.97412100  0.67717775  1
  Si  Si1407  1  0.82763100  0.97412100  0.92717775  1
  O  O1408  1  0.20005700  0.02093750  0.12098925  1
  O  O1409  1  0.20005700  0.02093750  0.37098925  1
  O  O1410  1  0.20005700  0.02093750  0.62098925  1
  O  O1411  1  0.20005700  0.02093750  0.87098925  1
  O  O1412  1  0.20005700  0.27093750  0.12098925  1
  O  O1413  1  0.20005700  0.27093750  0.37098925  1
  O  O1414  1  0.20005700  0.27093750  0.62098925  1
  O  O1415  1  0.20005700  0.27093750  0.87098925  1
  O  O1416  1  0.20005700  0.52093750  0.12098925  1
  O  O1417  1  0.20005700  0.52093750  0.37098925  1
  O  O1418  1  0.20005700  0.52093750  0.62098925  1
  O  O1419  1  0.20005700  0.52093750  0.87098925  1
  O  O1420  1  0.20005700  0.77093750  0.12098925  1
  O  O1421  1  0.20005700  0.77093750  0.37098925  1
  O  O1422  1  0.20005700  0.77093750  0.62098925  1
  O  O1423  1  0.20005700  0.77093750  0.87098925  1
  O  O1424  1  0.45005700  0.02093750  0.12098925  1
  O  O1425  1  0.45005700  0.02093750  0.37098925  1
  O  O1426  1  0.45005700  0.02093750  0.62098925  1
  O  O1427  1  0.45005700  0.02093750  0.87098925  1
  O  O1428  1  0.45005700  0.27093750  0.12098925  1
  O  O1429  1  0.45005700  0.27093750  0.37098925  1
  O  O1430  1  0.45005700  0.27093750  0.62098925  1
  O  O1431  1  0.45005700  0.27093750  0.87098925  1
  O  O1432  1  0.45005700  0.52093750  0.12098925  1
  O  O1433  1  0.45005700  0.52093750  0.37098925  1
  O  O1434  1  0.45005700  0.52093750  0.62098925  1
  O  O1435  1  0.45005700  0.52093750  0.87098925  1
  O  O1436  1  0.45005700  0.77093750  0.12098925  1
  O  O1437  1  0.45005700  0.77093750  0.37098925  1
  O  O1438  1  0.45005700  0.77093750  0.62098925  1
  O  O1439  1  0.45005700  0.77093750  0.87098925  1
  O  O1440  1  0.70005700  0.02093750  0.12098925  1
  O  O1441  1  0.70005700  0.02093750  0.37098925  1
  O  O1442  1  0.70005700  0.02093750  0.62098925  1
  O  O1443  1  0.70005700  0.02093750  0.87098925  1
  O  O1444  1  0.70005700  0.27093750  0.12098925  1
  O  O1445  1  0.70005700  0.27093750  0.37098925  1
  O  O1446  1  0.70005700  0.27093750  0.62098925  1
  O  O1447  1  0.70005700  0.27093750  0.87098925  1
  O  O1448  1  0.70005700  0.52093750  0.12098925  1
  O  O1449  1  0.70005700  0.52093750  0.37098925  1
  O  O1450  1  0.70005700  0.52093750  0.62098925  1
  O  O1451  1  0.70005700  0.52093750  0.87098925  1
  O  O1452  1  0.70005700  0.77093750  0.12098925  1
  O  O1453  1  0.70005700  0.77093750  0.37098925  1
  O  O1454  1  0.70005700  0.77093750  0.62098925  1
  O  O1455  1  0.70005700  0.77093750  0.87098925  1
  O  O1456  1  0.95005700  0.02093750  0.12098925  1
  O  O1457  1  0.95005700  0.02093750  0.37098925  1
  O  O1458  1  0.95005700  0.02093750  0.62098925  1
  O  O1459  1  0.95005700  0.02093750  0.87098925  1
  O  O1460  1  0.95005700  0.27093750  0.12098925  1
  O  O1461  1  0.95005700  0.27093750  0.37098925  1
  O  O1462  1  0.95005700  0.27093750  0.62098925  1
  O  O1463  1  0.95005700  0.27093750  0.87098925  1
  O  O1464  1  0.95005700  0.52093750  0.12098925  1
  O  O1465  1  0.95005700  0.52093750  0.37098925  1
  O  O1466  1  0.95005700  0.52093750  0.62098925  1
  O  O1467  1  0.95005700  0.52093750  0.87098925  1
  O  O1468  1  0.95005700  0.77093750  0.12098925  1
  O  O1469  1  0.95005700  0.77093750  0.37098925  1
  O  O1470  1  0.95005700  0.77093750  0.62098925  1
  O  O1471  1  0.95005700  0.77093750  0.87098925  1
  O  O1472  1  0.07499725  0.14594125  0.24602975  1
  O  O1473  1  0.07499725  0.14594125  0.49602975  1
  O  O1474  1  0.07499725  0.14594125  0.74602975  1
  O  O1475  1  0.07499725  0.14594125  0.99602975  1
  O  O1476  1  0.07499725  0.39594125  0.24602975  1
  O  O1477  1  0.07499725  0.39594125  0.49602975  1
  O  O1478  1  0.07499725  0.39594125  0.74602975  1
  O  O1479  1  0.07499725  0.39594125  0.99602975  1
  O  O1480  1  0.07499725  0.64594125  0.24602975  1
  O  O1481  1  0.07499725  0.64594125  0.49602975  1
  O  O1482  1  0.07499725  0.64594125  0.74602975  1
  O  O1483  1  0.07499725  0.64594125  0.99602975  1
  O  O1484  1  0.07499725  0.89594125  0.24602975  1
  O  O1485  1  0.07499725  0.89594125  0.49602975  1
  O  O1486  1  0.07499725  0.89594125  0.74602975  1
  O  O1487  1  0.07499725  0.89594125  0.99602975  1
  O  O1488  1  0.32499725  0.14594125  0.24602975  1
  O  O1489  1  0.32499725  0.14594125  0.49602975  1
  O  O1490  1  0.32499725  0.14594125  0.74602975  1
  O  O1491  1  0.32499725  0.14594125  0.99602975  1
  O  O1492  1  0.32499725  0.39594125  0.24602975  1
  O  O1493  1  0.32499725  0.39594125  0.49602975  1
  O  O1494  1  0.32499725  0.39594125  0.74602975  1
  O  O1495  1  0.32499725  0.39594125  0.99602975  1
  O  O1496  1  0.32499725  0.64594125  0.24602975  1
  O  O1497  1  0.32499725  0.64594125  0.49602975  1
  O  O1498  1  0.32499725  0.64594125  0.74602975  1
  O  O1499  1  0.32499725  0.64594125  0.99602975  1
  O  O1500  1  0.32499725  0.89594125  0.24602975  1
  O  O1501  1  0.32499725  0.89594125  0.49602975  1
  O  O1502  1  0.32499725  0.89594125  0.74602975  1
  O  O1503  1  0.32499725  0.89594125  0.99602975  1
  O  O1504  1  0.57499725  0.14594125  0.24602975  1
  O  O1505  1  0.57499725  0.14594125  0.49602975  1
  O  O1506  1  0.57499725  0.14594125  0.74602975  1
  O  O1507  1  0.57499725  0.14594125  0.99602975  1
  O  O1508  1  0.57499725  0.39594125  0.24602975  1
  O  O1509  1  0.57499725  0.39594125  0.49602975  1
  O  O1510  1  0.57499725  0.39594125  0.74602975  1
  O  O1511  1  0.57499725  0.39594125  0.99602975  1
  O  O1512  1  0.57499725  0.64594125  0.24602975  1
  O  O1513  1  0.57499725  0.64594125  0.49602975  1
  O  O1514  1  0.57499725  0.64594125  0.74602975  1
  O  O1515  1  0.57499725  0.64594125  0.99602975  1
  O  O1516  1  0.57499725  0.89594125  0.24602975  1
  O  O1517  1  0.57499725  0.89594125  0.49602975  1
  O  O1518  1  0.57499725  0.89594125  0.74602975  1
  O  O1519  1  0.57499725  0.89594125  0.99602975  1
  O  O1520  1  0.82499725  0.14594125  0.24602975  1
  O  O1521  1  0.82499725  0.14594125  0.49602975  1
  O  O1522  1  0.82499725  0.14594125  0.74602975  1
  O  O1523  1  0.82499725  0.14594125  0.99602975  1
  O  O1524  1  0.82499725  0.39594125  0.24602975  1
  O  O1525  1  0.82499725  0.39594125  0.49602975  1
  O  O1526  1  0.82499725  0.39594125  0.74602975  1
  O  O1527  1  0.82499725  0.39594125  0.99602975  1
  O  O1528  1  0.82499725  0.64594125  0.24602975  1
  O  O1529  1  0.82499725  0.64594125  0.49602975  1
  O  O1530  1  0.82499725  0.64594125  0.74602975  1
  O  O1531  1  0.82499725  0.64594125  0.99602975  1
  O  O1532  1  0.82499725  0.89594125  0.24602975  1
  O  O1533  1  0.82499725  0.89594125  0.49602975  1
  O  O1534  1  0.82499725  0.89594125  0.74602975  1
  O  O1535  1  0.82499725  0.89594125  0.99602975  1
  O  O1536  1  0.17499800  0.10405675  0.00397325  1
  O  O1537  1  0.17499800  0.10405675  0.25397325  1
  O  O1538  1  0.17499800  0.10405675  0.50397325  1
  O  O1539  1  0.17499800  0.10405675  0.75397325  1
  O  O1540  1  0.17499800  0.35405675  0.00397325  1
  O  O1541  1  0.17499800  0.35405675  0.25397325  1
  O  O1542  1  0.17499800  0.35405675  0.50397325  1
  O  O1543  1  0.17499800  0.35405675  0.75397325  1
  O  O1544  1  0.17499800  0.60405675  0.00397325  1
  O  O1545  1  0.17499800  0.60405675  0.25397325  1
  O  O1546  1  0.17499800  0.60405675  0.50397325  1
  O  O1547  1  0.17499800  0.60405675  0.75397325  1
  O  O1548  1  0.17499800  0.85405675  0.00397325  1
  O  O1549  1  0.17499800  0.85405675  0.25397325  1
  O  O1550  1  0.17499800  0.85405675  0.50397325  1
  O  O1551  1  0.17499800  0.85405675  0.75397325  1
  O  O1552  1  0.42499800  0.10405675  0.00397325  1
  O  O1553  1  0.42499800  0.10405675  0.25397325  1
  O  O1554  1  0.42499800  0.10405675  0.50397325  1
  O  O1555  1  0.42499800  0.10405675  0.75397325  1
  O  O1556  1  0.42499800  0.35405675  0.00397325  1
  O  O1557  1  0.42499800  0.35405675  0.25397325  1
  O  O1558  1  0.42499800  0.35405675  0.50397325  1
  O  O1559  1  0.42499800  0.35405675  0.75397325  1
  O  O1560  1  0.42499800  0.60405675  0.00397325  1
  O  O1561  1  0.42499800  0.60405675  0.25397325  1
  O  O1562  1  0.42499800  0.60405675  0.50397325  1
  O  O1563  1  0.42499800  0.60405675  0.75397325  1
  O  O1564  1  0.42499800  0.85405675  0.00397325  1
  O  O1565  1  0.42499800  0.85405675  0.25397325  1
  O  O1566  1  0.42499800  0.85405675  0.50397325  1
  O  O1567  1  0.42499800  0.85405675  0.75397325  1
  O  O1568  1  0.67499800  0.10405675  0.00397325  1
  O  O1569  1  0.67499800  0.10405675  0.25397325  1
  O  O1570  1  0.67499800  0.10405675  0.50397325  1
  O  O1571  1  0.67499800  0.10405675  0.75397325  1
  O  O1572  1  0.67499800  0.35405675  0.00397325  1
  O  O1573  1  0.67499800  0.35405675  0.25397325  1
  O  O1574  1  0.67499800  0.35405675  0.50397325  1
  O  O1575  1  0.67499800  0.35405675  0.75397325  1
  O  O1576  1  0.67499800  0.60405675  0.00397325  1
  O  O1577  1  0.67499800  0.60405675  0.25397325  1
  O  O1578  1  0.67499800  0.60405675  0.50397325  1
  O  O1579  1  0.67499800  0.60405675  0.75397325  1
  O  O1580  1  0.67499800  0.85405675  0.00397325  1
  O  O1581  1  0.67499800  0.85405675  0.25397325  1
  O  O1582  1  0.67499800  0.85405675  0.50397325  1
  O  O1583  1  0.67499800  0.85405675  0.75397325  1
  O  O1584  1  0.92499800  0.10405675  0.00397325  1
  O  O1585  1  0.92499800  0.10405675  0.25397325  1
  O  O1586  1  0.92499800  0.10405675  0.50397325  1
  O  O1587  1  0.92499800  0.10405675  0.75397325  1
  O  O1588  1  0.92499800  0.35405675  0.00397325  1
  O  O1589  1  0.92499800  0.35405675  0.25397325  1
  O  O1590  1  0.92499800  0.35405675  0.50397325  1
  O  O1591  1  0.92499800  0.35405675  0.75397325  1
  O  O1592  1  0.92499800  0.60405675  0.00397325  1
  O  O1593  1  0.92499800  0.60405675  0.25397325  1
  O  O1594  1  0.92499800  0.60405675  0.50397325  1
  O  O1595  1  0.92499800  0.60405675  0.75397325  1
  O  O1596  1  0.92499800  0.85405675  0.00397325  1
  O  O1597  1  0.92499800  0.85405675  0.25397325  1
  O  O1598  1  0.92499800  0.85405675  0.50397325  1
  O  O1599  1  0.92499800  0.85405675  0.75397325  1
  O  O1600  1  0.04994475  0.22906450  0.12900925  1
  O  O1601  1  0.04994475  0.22906450  0.37900925  1
  O  O1602  1  0.04994475  0.22906450  0.62900925  1
  O  O1603  1  0.04994475  0.22906450  0.87900925  1
  O  O1604  1  0.04994475  0.47906450  0.12900925  1
  O  O1605  1  0.04994475  0.47906450  0.37900925  1
  O  O1606  1  0.04994475  0.47906450  0.62900925  1
  O  O1607  1  0.04994475  0.47906450  0.87900925  1
  O  O1608  1  0.04994475  0.72906450  0.12900925  1
  O  O1609  1  0.04994475  0.72906450  0.37900925  1
  O  O1610  1  0.04994475  0.72906450  0.62900925  1
  O  O1611  1  0.04994475  0.72906450  0.87900925  1
  O  O1612  1  0.04994475  0.97906450  0.12900925  1
  O  O1613  1  0.04994475  0.97906450  0.37900925  1
  O  O1614  1  0.04994475  0.97906450  0.62900925  1
  O  O1615  1  0.04994475  0.97906450  0.87900925  1
  O  O1616  1  0.29994475  0.22906450  0.12900925  1
  O  O1617  1  0.29994475  0.22906450  0.37900925  1
  O  O1618  1  0.29994475  0.22906450  0.62900925  1
  O  O1619  1  0.29994475  0.22906450  0.87900925  1
  O  O1620  1  0.29994475  0.47906450  0.12900925  1
  O  O1621  1  0.29994475  0.47906450  0.37900925  1
  O  O1622  1  0.29994475  0.47906450  0.62900925  1
  O  O1623  1  0.29994475  0.47906450  0.87900925  1
  O  O1624  1  0.29994475  0.72906450  0.12900925  1
  O  O1625  1  0.29994475  0.72906450  0.37900925  1
  O  O1626  1  0.29994475  0.72906450  0.62900925  1
  O  O1627  1  0.29994475  0.72906450  0.87900925  1
  O  O1628  1  0.29994475  0.97906450  0.12900925  1
  O  O1629  1  0.29994475  0.97906450  0.37900925  1
  O  O1630  1  0.29994475  0.97906450  0.62900925  1
  O  O1631  1  0.29994475  0.97906450  0.87900925  1
  O  O1632  1  0.54994475  0.22906450  0.12900925  1
  O  O1633  1  0.54994475  0.22906450  0.37900925  1
  O  O1634  1  0.54994475  0.22906450  0.62900925  1
  O  O1635  1  0.54994475  0.22906450  0.87900925  1
  O  O1636  1  0.54994475  0.47906450  0.12900925  1
  O  O1637  1  0.54994475  0.47906450  0.37900925  1
  O  O1638  1  0.54994475  0.47906450  0.62900925  1
  O  O1639  1  0.54994475  0.47906450  0.87900925  1
  O  O1640  1  0.54994475  0.72906450  0.12900925  1
  O  O1641  1  0.54994475  0.72906450  0.37900925  1
  O  O1642  1  0.54994475  0.72906450  0.62900925  1
  O  O1643  1  0.54994475  0.72906450  0.87900925  1
  O  O1644  1  0.54994475  0.97906450  0.12900925  1
  O  O1645  1  0.54994475  0.97906450  0.37900925  1
  O  O1646  1  0.54994475  0.97906450  0.62900925  1
  O  O1647  1  0.54994475  0.97906450  0.87900925  1
  O  O1648  1  0.79994475  0.22906450  0.12900925  1
  O  O1649  1  0.79994475  0.22906450  0.37900925  1
  O  O1650  1  0.79994475  0.22906450  0.62900925  1
  O  O1651  1  0.79994475  0.22906450  0.87900925  1
  O  O1652  1  0.79994475  0.47906450  0.12900925  1
  O  O1653  1  0.79994475  0.47906450  0.37900925  1
  O  O1654  1  0.79994475  0.47906450  0.62900925  1
  O  O1655  1  0.79994475  0.47906450  0.87900925  1
  O  O1656  1  0.79994475  0.72906450  0.12900925  1
  O  O1657  1  0.79994475  0.72906450  0.37900925  1
  O  O1658  1  0.79994475  0.72906450  0.62900925  1
  O  O1659  1  0.79994475  0.72906450  0.87900925  1
  O  O1660  1  0.79994475  0.97906450  0.12900925  1
  O  O1661  1  0.79994475  0.97906450  0.37900925  1
  O  O1662  1  0.79994475  0.97906450  0.62900925  1
  O  O1663  1  0.79994475  0.97906450  0.87900925  1
  O  O1664  1  0.15075775  0.04402675  0.19432200  1
  O  O1665  1  0.15075775  0.04402675  0.44432200  1
  O  O1666  1  0.15075775  0.04402675  0.69432200  1
  O  O1667  1  0.15075775  0.04402675  0.94432200  1
  O  O1668  1  0.15075775  0.29402675  0.19432200  1
  O  O1669  1  0.15075775  0.29402675  0.44432200  1
  O  O1670  1  0.15075775  0.29402675  0.69432200  1
  O  O1671  1  0.15075775  0.29402675  0.94432200  1
  O  O1672  1  0.15075775  0.54402675  0.19432200  1
  O  O1673  1  0.15075775  0.54402675  0.44432200  1
  O  O1674  1  0.15075775  0.54402675  0.69432200  1
  O  O1675  1  0.15075775  0.54402675  0.94432200  1
  O  O1676  1  0.15075775  0.79402675  0.19432200  1
  O  O1677  1  0.15075775  0.79402675  0.44432200  1
  O  O1678  1  0.15075775  0.79402675  0.69432200  1
  O  O1679  1  0.15075775  0.79402675  0.94432200  1
  O  O1680  1  0.40075775  0.04402675  0.19432200  1
  O  O1681  1  0.40075775  0.04402675  0.44432200  1
  O  O1682  1  0.40075775  0.04402675  0.69432200  1
  O  O1683  1  0.40075775  0.04402675  0.94432200  1
  O  O1684  1  0.40075775  0.29402675  0.19432200  1
  O  O1685  1  0.40075775  0.29402675  0.44432200  1
  O  O1686  1  0.40075775  0.29402675  0.69432200  1
  O  O1687  1  0.40075775  0.29402675  0.94432200  1
  O  O1688  1  0.40075775  0.54402675  0.19432200  1
  O  O1689  1  0.40075775  0.54402675  0.44432200  1
  O  O1690  1  0.40075775  0.54402675  0.69432200  1
  O  O1691  1  0.40075775  0.54402675  0.94432200  1
  O  O1692  1  0.40075775  0.79402675  0.19432200  1
  O  O1693  1  0.40075775  0.79402675  0.44432200  1
  O  O1694  1  0.40075775  0.79402675  0.69432200  1
  O  O1695  1  0.40075775  0.79402675  0.94432200  1
  O  O1696  1  0.65075775  0.04402675  0.19432200  1
  O  O1697  1  0.65075775  0.04402675  0.44432200  1
  O  O1698  1  0.65075775  0.04402675  0.69432200  1
  O  O1699  1  0.65075775  0.04402675  0.94432200  1
  O  O1700  1  0.65075775  0.29402675  0.19432200  1
  O  O1701  1  0.65075775  0.29402675  0.44432200  1
  O  O1702  1  0.65075775  0.29402675  0.69432200  1
  O  O1703  1  0.65075775  0.29402675  0.94432200  1
  O  O1704  1  0.65075775  0.54402675  0.19432200  1
  O  O1705  1  0.65075775  0.54402675  0.44432200  1
  O  O1706  1  0.65075775  0.54402675  0.69432200  1
  O  O1707  1  0.65075775  0.54402675  0.94432200  1
  O  O1708  1  0.65075775  0.79402675  0.19432200  1
  O  O1709  1  0.65075775  0.79402675  0.44432200  1
  O  O1710  1  0.65075775  0.79402675  0.69432200  1
  O  O1711  1  0.65075775  0.79402675  0.94432200  1
  O  O1712  1  0.90075775  0.04402675  0.19432200  1
  O  O1713  1  0.90075775  0.04402675  0.44432200  1
  O  O1714  1  0.90075775  0.04402675  0.69432200  1
  O  O1715  1  0.90075775  0.04402675  0.94432200  1
  O  O1716  1  0.90075775  0.29402675  0.19432200  1
  O  O1717  1  0.90075775  0.29402675  0.44432200  1
  O  O1718  1  0.90075775  0.29402675  0.69432200  1
  O  O1719  1  0.90075775  0.29402675  0.94432200  1
  O  O1720  1  0.90075775  0.54402675  0.19432200  1
  O  O1721  1  0.90075775  0.54402675  0.44432200  1
  O  O1722  1  0.90075775  0.54402675  0.69432200  1
  O  O1723  1  0.90075775  0.54402675  0.94432200  1
  O  O1724  1  0.90075775  0.79402675  0.19432200  1
  O  O1725  1  0.90075775  0.79402675  0.44432200  1
  O  O1726  1  0.90075775  0.79402675  0.69432200  1
  O  O1727  1  0.90075775  0.79402675  0.94432200  1
  O  O1728  1  0.02587000  0.16901900  0.06931850  1
  O  O1729  1  0.02587000  0.16901900  0.31931850  1
  O  O1730  1  0.02587000  0.16901900  0.56931850  1
  O  O1731  1  0.02587000  0.16901900  0.81931850  1
  O  O1732  1  0.02587000  0.41901900  0.06931850  1
  O  O1733  1  0.02587000  0.41901900  0.31931850  1
  O  O1734  1  0.02587000  0.41901900  0.56931850  1
  O  O1735  1  0.02587000  0.41901900  0.81931850  1
  O  O1736  1  0.02587000  0.66901900  0.06931850  1
  O  O1737  1  0.02587000  0.66901900  0.31931850  1
  O  O1738  1  0.02587000  0.66901900  0.56931850  1
  O  O1739  1  0.02587000  0.66901900  0.81931850  1
  O  O1740  1  0.02587000  0.91901900  0.06931850  1
  O  O1741  1  0.02587000  0.91901900  0.31931850  1
  O  O1742  1  0.02587000  0.91901900  0.56931850  1
  O  O1743  1  0.02587000  0.91901900  0.81931850  1
  O  O1744  1  0.27587000  0.16901900  0.06931850  1
  O  O1745  1  0.27587000  0.16901900  0.31931850  1
  O  O1746  1  0.27587000  0.16901900  0.56931850  1
  O  O1747  1  0.27587000  0.16901900  0.81931850  1
  O  O1748  1  0.27587000  0.41901900  0.06931850  1
  O  O1749  1  0.27587000  0.41901900  0.31931850  1
  O  O1750  1  0.27587000  0.41901900  0.56931850  1
  O  O1751  1  0.27587000  0.41901900  0.81931850  1
  O  O1752  1  0.27587000  0.66901900  0.06931850  1
  O  O1753  1  0.27587000  0.66901900  0.31931850  1
  O  O1754  1  0.27587000  0.66901900  0.56931850  1
  O  O1755  1  0.27587000  0.66901900  0.81931850  1
  O  O1756  1  0.27587000  0.91901900  0.06931850  1
  O  O1757  1  0.27587000  0.91901900  0.31931850  1
  O  O1758  1  0.27587000  0.91901900  0.56931850  1
  O  O1759  1  0.27587000  0.91901900  0.81931850  1
  O  O1760  1  0.52587000  0.16901900  0.06931850  1
  O  O1761  1  0.52587000  0.16901900  0.31931850  1
  O  O1762  1  0.52587000  0.16901900  0.56931850  1
  O  O1763  1  0.52587000  0.16901900  0.81931850  1
  O  O1764  1  0.52587000  0.41901900  0.06931850  1
  O  O1765  1  0.52587000  0.41901900  0.31931850  1
  O  O1766  1  0.52587000  0.41901900  0.56931850  1
  O  O1767  1  0.52587000  0.41901900  0.81931850  1
  O  O1768  1  0.52587000  0.66901900  0.06931850  1
  O  O1769  1  0.52587000  0.66901900  0.31931850  1
  O  O1770  1  0.52587000  0.66901900  0.56931850  1
  O  O1771  1  0.52587000  0.66901900  0.81931850  1
  O  O1772  1  0.52587000  0.91901900  0.06931850  1
  O  O1773  1  0.52587000  0.91901900  0.31931850  1
  O  O1774  1  0.52587000  0.91901900  0.56931850  1
  O  O1775  1  0.52587000  0.91901900  0.81931850  1
  O  O1776  1  0.77587000  0.16901900  0.06931850  1
  O  O1777  1  0.77587000  0.16901900  0.31931850  1
  O  O1778  1  0.77587000  0.16901900  0.56931850  1
  O  O1779  1  0.77587000  0.16901900  0.81931850  1
  O  O1780  1  0.77587000  0.41901900  0.06931850  1
  O  O1781  1  0.77587000  0.41901900  0.31931850  1
  O  O1782  1  0.77587000  0.41901900  0.56931850  1
  O  O1783  1  0.77587000  0.41901900  0.81931850  1
  O  O1784  1  0.77587000  0.66901900  0.06931850  1
  O  O1785  1  0.77587000  0.66901900  0.31931850  1
  O  O1786  1  0.77587000  0.66901900  0.56931850  1
  O  O1787  1  0.77587000  0.66901900  0.81931850  1
  O  O1788  1  0.77587000  0.91901900  0.06931850  1
  O  O1789  1  0.77587000  0.91901900  0.31931850  1
  O  O1790  1  0.77587000  0.91901900  0.56931850  1
  O  O1791  1  0.77587000  0.91901900  0.81931850  1
  O  O1792  1  0.22413025  0.08098325  0.18067725  1
  O  O1793  1  0.22413025  0.08098325  0.43067725  1
  O  O1794  1  0.22413025  0.08098325  0.68067725  1
  O  O1795  1  0.22413025  0.08098325  0.93067725  1
  O  O1796  1  0.22413025  0.33098325  0.18067725  1
  O  O1797  1  0.22413025  0.33098325  0.43067725  1
  O  O1798  1  0.22413025  0.33098325  0.68067725  1
  O  O1799  1  0.22413025  0.33098325  0.93067725  1
  O  O1800  1  0.22413025  0.58098325  0.18067725  1
  O  O1801  1  0.22413025  0.58098325  0.43067725  1
  O  O1802  1  0.22413025  0.58098325  0.68067725  1
  O  O1803  1  0.22413025  0.58098325  0.93067725  1
  O  O1804  1  0.22413025  0.83098325  0.18067725  1
  O  O1805  1  0.22413025  0.83098325  0.43067725  1
  O  O1806  1  0.22413025  0.83098325  0.68067725  1
  O  O1807  1  0.22413025  0.83098325  0.93067725  1
  O  O1808  1  0.47413025  0.08098325  0.18067725  1
  O  O1809  1  0.47413025  0.08098325  0.43067725  1
  O  O1810  1  0.47413025  0.08098325  0.68067725  1
  O  O1811  1  0.47413025  0.08098325  0.93067725  1
  O  O1812  1  0.47413025  0.33098325  0.18067725  1
  O  O1813  1  0.47413025  0.33098325  0.43067725  1
  O  O1814  1  0.47413025  0.33098325  0.68067725  1
  O  O1815  1  0.47413025  0.33098325  0.93067725  1
  O  O1816  1  0.47413025  0.58098325  0.18067725  1
  O  O1817  1  0.47413025  0.58098325  0.43067725  1
  O  O1818  1  0.47413025  0.58098325  0.68067725  1
  O  O1819  1  0.47413025  0.58098325  0.93067725  1
  O  O1820  1  0.47413025  0.83098325  0.18067725  1
  O  O1821  1  0.47413025  0.83098325  0.43067725  1
  O  O1822  1  0.47413025  0.83098325  0.68067725  1
  O  O1823  1  0.47413025  0.83098325  0.93067725  1
  O  O1824  1  0.72413025  0.08098325  0.18067725  1
  O  O1825  1  0.72413025  0.08098325  0.43067725  1
  O  O1826  1  0.72413025  0.08098325  0.68067725  1
  O  O1827  1  0.72413025  0.08098325  0.93067725  1
  O  O1828  1  0.72413025  0.33098325  0.18067725  1
  O  O1829  1  0.72413025  0.33098325  0.43067725  1
  O  O1830  1  0.72413025  0.33098325  0.68067725  1
  O  O1831  1  0.72413025  0.33098325  0.93067725  1
  O  O1832  1  0.72413025  0.58098325  0.18067725  1
  O  O1833  1  0.72413025  0.58098325  0.43067725  1
  O  O1834  1  0.72413025  0.58098325  0.68067725  1
  O  O1835  1  0.72413025  0.58098325  0.93067725  1
  O  O1836  1  0.72413025  0.83098325  0.18067725  1
  O  O1837  1  0.72413025  0.83098325  0.43067725  1
  O  O1838  1  0.72413025  0.83098325  0.68067725  1
  O  O1839  1  0.72413025  0.83098325  0.93067725  1
  O  O1840  1  0.97413025  0.08098325  0.18067725  1
  O  O1841  1  0.97413025  0.08098325  0.43067725  1
  O  O1842  1  0.97413025  0.08098325  0.68067725  1
  O  O1843  1  0.97413025  0.08098325  0.93067725  1
  O  O1844  1  0.97413025  0.33098325  0.18067725  1
  O  O1845  1  0.97413025  0.33098325  0.43067725  1
  O  O1846  1  0.97413025  0.33098325  0.68067725  1
  O  O1847  1  0.97413025  0.33098325  0.93067725  1
  O  O1848  1  0.97413025  0.58098325  0.18067725  1
  O  O1849  1  0.97413025  0.58098325  0.43067725  1
  O  O1850  1  0.97413025  0.58098325  0.68067725  1
  O  O1851  1  0.97413025  0.58098325  0.93067725  1
  O  O1852  1  0.97413025  0.83098325  0.18067725  1
  O  O1853  1  0.97413025  0.83098325  0.43067725  1
  O  O1854  1  0.97413025  0.83098325  0.68067725  1
  O  O1855  1  0.97413025  0.83098325  0.93067725  1
  O  O1856  1  0.09925100  0.20597675  0.05566900  1
  O  O1857  1  0.09925100  0.20597675  0.30566900  1
  O  O1858  1  0.09925100  0.20597675  0.55566900  1
  O  O1859  1  0.09925100  0.20597675  0.80566900  1
  O  O1860  1  0.09925100  0.45597675  0.05566900  1
  O  O1861  1  0.09925100  0.45597675  0.30566900  1
  O  O1862  1  0.09925100  0.45597675  0.55566900  1
  O  O1863  1  0.09925100  0.45597675  0.80566900  1
  O  O1864  1  0.09925100  0.70597675  0.05566900  1
  O  O1865  1  0.09925100  0.70597675  0.30566900  1
  O  O1866  1  0.09925100  0.70597675  0.55566900  1
  O  O1867  1  0.09925100  0.70597675  0.80566900  1
  O  O1868  1  0.09925100  0.95597675  0.05566900  1
  O  O1869  1  0.09925100  0.95597675  0.30566900  1
  O  O1870  1  0.09925100  0.95597675  0.55566900  1
  O  O1871  1  0.09925100  0.95597675  0.80566900  1
  O  O1872  1  0.34925100  0.20597675  0.05566900  1
  O  O1873  1  0.34925100  0.20597675  0.30566900  1
  O  O1874  1  0.34925100  0.20597675  0.55566900  1
  O  O1875  1  0.34925100  0.20597675  0.80566900  1
  O  O1876  1  0.34925100  0.45597675  0.05566900  1
  O  O1877  1  0.34925100  0.45597675  0.30566900  1
  O  O1878  1  0.34925100  0.45597675  0.55566900  1
  O  O1879  1  0.34925100  0.45597675  0.80566900  1
  O  O1880  1  0.34925100  0.70597675  0.05566900  1
  O  O1881  1  0.34925100  0.70597675  0.30566900  1
  O  O1882  1  0.34925100  0.70597675  0.55566900  1
  O  O1883  1  0.34925100  0.70597675  0.80566900  1
  O  O1884  1  0.34925100  0.95597675  0.05566900  1
  O  O1885  1  0.34925100  0.95597675  0.30566900  1
  O  O1886  1  0.34925100  0.95597675  0.55566900  1
  O  O1887  1  0.34925100  0.95597675  0.80566900  1
  O  O1888  1  0.59925100  0.20597675  0.05566900  1
  O  O1889  1  0.59925100  0.20597675  0.30566900  1
  O  O1890  1  0.59925100  0.20597675  0.55566900  1
  O  O1891  1  0.59925100  0.20597675  0.80566900  1
  O  O1892  1  0.59925100  0.45597675  0.05566900  1
  O  O1893  1  0.59925100  0.45597675  0.30566900  1
  O  O1894  1  0.59925100  0.45597675  0.55566900  1
  O  O1895  1  0.59925100  0.45597675  0.80566900  1
  O  O1896  1  0.59925100  0.70597675  0.05566900  1
  O  O1897  1  0.59925100  0.70597675  0.30566900  1
  O  O1898  1  0.59925100  0.70597675  0.55566900  1
  O  O1899  1  0.59925100  0.70597675  0.80566900  1
  O  O1900  1  0.59925100  0.95597675  0.05566900  1
  O  O1901  1  0.59925100  0.95597675  0.30566900  1
  O  O1902  1  0.59925100  0.95597675  0.55566900  1
  O  O1903  1  0.59925100  0.95597675  0.80566900  1
  O  O1904  1  0.84925100  0.20597675  0.05566900  1
  O  O1905  1  0.84925100  0.20597675  0.30566900  1
  O  O1906  1  0.84925100  0.20597675  0.55566900  1
  O  O1907  1  0.84925100  0.20597675  0.80566900  1
  O  O1908  1  0.84925100  0.45597675  0.05566900  1
  O  O1909  1  0.84925100  0.45597675  0.30566900  1
  O  O1910  1  0.84925100  0.45597675  0.55566900  1
  O  O1911  1  0.84925100  0.45597675  0.80566900  1
  O  O1912  1  0.84925100  0.70597675  0.05566900  1
  O  O1913  1  0.84925100  0.70597675  0.30566900  1
  O  O1914  1  0.84925100  0.70597675  0.55566900  1
  O  O1915  1  0.84925100  0.70597675  0.80566900  1
  O  O1916  1  0.84925100  0.95597675  0.05566900  1
  O  O1917  1  0.84925100  0.95597675  0.30566900  1
  O  O1918  1  0.84925100  0.95597675  0.55566900  1
  O  O1919  1  0.84925100  0.95597675  0.80566900  1
  O  O1920  1  0.13253550  0.00172750  0.06623275  1
  O  O1921  1  0.13253550  0.00172750  0.31623275  1
  O  O1922  1  0.13253550  0.00172750  0.56623275  1
  O  O1923  1  0.13253550  0.00172750  0.81623275  1
  O  O1924  1  0.13253550  0.25172750  0.06623275  1
  O  O1925  1  0.13253550  0.25172750  0.31623275  1
  O  O1926  1  0.13253550  0.25172750  0.56623275  1
  O  O1927  1  0.13253550  0.25172750  0.81623275  1
  O  O1928  1  0.13253550  0.50172750  0.06623275  1
  O  O1929  1  0.13253550  0.50172750  0.31623275  1
  O  O1930  1  0.13253550  0.50172750  0.56623275  1
  O  O1931  1  0.13253550  0.50172750  0.81623275  1
  O  O1932  1  0.13253550  0.75172750  0.06623275  1
  O  O1933  1  0.13253550  0.75172750  0.31623275  1
  O  O1934  1  0.13253550  0.75172750  0.56623275  1
  O  O1935  1  0.13253550  0.75172750  0.81623275  1
  O  O1936  1  0.38253550  0.00172750  0.06623275  1
  O  O1937  1  0.38253550  0.00172750  0.31623275  1
  O  O1938  1  0.38253550  0.00172750  0.56623275  1
  O  O1939  1  0.38253550  0.00172750  0.81623275  1
  O  O1940  1  0.38253550  0.25172750  0.06623275  1
  O  O1941  1  0.38253550  0.25172750  0.31623275  1
  O  O1942  1  0.38253550  0.25172750  0.56623275  1
  O  O1943  1  0.38253550  0.25172750  0.81623275  1
  O  O1944  1  0.38253550  0.50172750  0.06623275  1
  O  O1945  1  0.38253550  0.50172750  0.31623275  1
  O  O1946  1  0.38253550  0.50172750  0.56623275  1
  O  O1947  1  0.38253550  0.50172750  0.81623275  1
  O  O1948  1  0.38253550  0.75172750  0.06623275  1
  O  O1949  1  0.38253550  0.75172750  0.31623275  1
  O  O1950  1  0.38253550  0.75172750  0.56623275  1
  O  O1951  1  0.38253550  0.75172750  0.81623275  1
  O  O1952  1  0.63253550  0.00172750  0.06623275  1
  O  O1953  1  0.63253550  0.00172750  0.31623275  1
  O  O1954  1  0.63253550  0.00172750  0.56623275  1
  O  O1955  1  0.63253550  0.00172750  0.81623275  1
  O  O1956  1  0.63253550  0.25172750  0.06623275  1
  O  O1957  1  0.63253550  0.25172750  0.31623275  1
  O  O1958  1  0.63253550  0.25172750  0.56623275  1
  O  O1959  1  0.63253550  0.25172750  0.81623275  1
  O  O1960  1  0.63253550  0.50172750  0.06623275  1
  O  O1961  1  0.63253550  0.50172750  0.31623275  1
  O  O1962  1  0.63253550  0.50172750  0.56623275  1
  O  O1963  1  0.63253550  0.50172750  0.81623275  1
  O  O1964  1  0.63253550  0.75172750  0.06623275  1
  O  O1965  1  0.63253550  0.75172750  0.31623275  1
  O  O1966  1  0.63253550  0.75172750  0.56623275  1
  O  O1967  1  0.63253550  0.75172750  0.81623275  1
  O  O1968  1  0.88253550  0.00172750  0.06623275  1
  O  O1969  1  0.88253550  0.00172750  0.31623275  1
  O  O1970  1  0.88253550  0.00172750  0.56623275  1
  O  O1971  1  0.88253550  0.00172750  0.81623275  1
  O  O1972  1  0.88253550  0.25172750  0.06623275  1
  O  O1973  1  0.88253550  0.25172750  0.31623275  1
  O  O1974  1  0.88253550  0.25172750  0.56623275  1
  O  O1975  1  0.88253550  0.25172750  0.81623275  1
  O  O1976  1  0.88253550  0.50172750  0.06623275  1
  O  O1977  1  0.88253550  0.50172750  0.31623275  1
  O  O1978  1  0.88253550  0.50172750  0.56623275  1
  O  O1979  1  0.88253550  0.50172750  0.81623275  1
  O  O1980  1  0.88253550  0.75172750  0.06623275  1
  O  O1981  1  0.88253550  0.75172750  0.31623275  1
  O  O1982  1  0.88253550  0.75172750  0.56623275  1
  O  O1983  1  0.88253550  0.75172750  0.81623275  1
  O  O1984  1  0.00741475  0.12672450  0.19127675  1
  O  O1985  1  0.00741475  0.12672450  0.44127675  1
  O  O1986  1  0.00741475  0.12672450  0.69127675  1
  O  O1987  1  0.00741475  0.12672450  0.94127675  1
  O  O1988  1  0.00741475  0.37672450  0.19127675  1
  O  O1989  1  0.00741475  0.37672450  0.44127675  1
  O  O1990  1  0.00741475  0.37672450  0.69127675  1
  O  O1991  1  0.00741475  0.37672450  0.94127675  1
  O  O1992  1  0.00741475  0.62672450  0.19127675  1
  O  O1993  1  0.00741475  0.62672450  0.44127675  1
  O  O1994  1  0.00741475  0.62672450  0.69127675  1
  O  O1995  1  0.00741475  0.62672450  0.94127675  1
  O  O1996  1  0.00741475  0.87672450  0.19127675  1
  O  O1997  1  0.00741475  0.87672450  0.44127675  1
  O  O1998  1  0.00741475  0.87672450  0.69127675  1
  O  O1999  1  0.00741475  0.87672450  0.94127675  1
  O  O2000  1  0.25741475  0.12672450  0.19127675  1
  O  O2001  1  0.25741475  0.12672450  0.44127675  1
  O  O2002  1  0.25741475  0.12672450  0.69127675  1
  O  O2003  1  0.25741475  0.12672450  0.94127675  1
  O  O2004  1  0.25741475  0.37672450  0.19127675  1
  O  O2005  1  0.25741475  0.37672450  0.44127675  1
  O  O2006  1  0.25741475  0.37672450  0.69127675  1
  O  O2007  1  0.25741475  0.37672450  0.94127675  1
  O  O2008  1  0.25741475  0.62672450  0.19127675  1
  O  O2009  1  0.25741475  0.62672450  0.44127675  1
  O  O2010  1  0.25741475  0.62672450  0.69127675  1
  O  O2011  1  0.25741475  0.62672450  0.94127675  1
  O  O2012  1  0.25741475  0.87672450  0.19127675  1
  O  O2013  1  0.25741475  0.87672450  0.44127675  1
  O  O2014  1  0.25741475  0.87672450  0.69127675  1
  O  O2015  1  0.25741475  0.87672450  0.94127675  1
  O  O2016  1  0.50741475  0.12672450  0.19127675  1
  O  O2017  1  0.50741475  0.12672450  0.44127675  1
  O  O2018  1  0.50741475  0.12672450  0.69127675  1
  O  O2019  1  0.50741475  0.12672450  0.94127675  1
  O  O2020  1  0.50741475  0.37672450  0.19127675  1
  O  O2021  1  0.50741475  0.37672450  0.44127675  1
  O  O2022  1  0.50741475  0.37672450  0.69127675  1
  O  O2023  1  0.50741475  0.37672450  0.94127675  1
  O  O2024  1  0.50741475  0.62672450  0.19127675  1
  O  O2025  1  0.50741475  0.62672450  0.44127675  1
  O  O2026  1  0.50741475  0.62672450  0.69127675  1
  O  O2027  1  0.50741475  0.62672450  0.94127675  1
  O  O2028  1  0.50741475  0.87672450  0.19127675  1
  O  O2029  1  0.50741475  0.87672450  0.44127675  1
  O  O2030  1  0.50741475  0.87672450  0.69127675  1
  O  O2031  1  0.50741475  0.87672450  0.94127675  1
  O  O2032  1  0.75741475  0.12672450  0.19127675  1
  O  O2033  1  0.75741475  0.12672450  0.44127675  1
  O  O2034  1  0.75741475  0.12672450  0.69127675  1
  O  O2035  1  0.75741475  0.12672450  0.94127675  1
  O  O2036  1  0.75741475  0.37672450  0.19127675  1
  O  O2037  1  0.75741475  0.37672450  0.44127675  1
  O  O2038  1  0.75741475  0.37672450  0.69127675  1
  O  O2039  1  0.75741475  0.37672450  0.94127675  1
  O  O2040  1  0.75741475  0.62672450  0.19127675  1
  O  O2041  1  0.75741475  0.62672450  0.44127675  1
  O  O2042  1  0.75741475  0.62672450  0.69127675  1
  O  O2043  1  0.75741475  0.62672450  0.94127675  1
  O  O2044  1  0.75741475  0.87672450  0.19127675  1
  O  O2045  1  0.75741475  0.87672450  0.44127675  1
  O  O2046  1  0.75741475  0.87672450  0.69127675  1
  O  O2047  1  0.75741475  0.87672450  0.94127675  1
  O  O2048  1  0.24258050  0.12327750  0.05872525  1
  O  O2049  1  0.24258050  0.12327750  0.30872525  1
  O  O2050  1  0.24258050  0.12327750  0.55872525  1
  O  O2051  1  0.24258050  0.12327750  0.80872525  1
  O  O2052  1  0.24258050  0.37327750  0.05872525  1
  O  O2053  1  0.24258050  0.37327750  0.30872525  1
  O  O2054  1  0.24258050  0.37327750  0.55872525  1
  O  O2055  1  0.24258050  0.37327750  0.80872525  1
  O  O2056  1  0.24258050  0.62327750  0.05872525  1
  O  O2057  1  0.24258050  0.62327750  0.30872525  1
  O  O2058  1  0.24258050  0.62327750  0.55872525  1
  O  O2059  1  0.24258050  0.62327750  0.80872525  1
  O  O2060  1  0.24258050  0.87327750  0.05872525  1
  O  O2061  1  0.24258050  0.87327750  0.30872525  1
  O  O2062  1  0.24258050  0.87327750  0.55872525  1
  O  O2063  1  0.24258050  0.87327750  0.80872525  1
  O  O2064  1  0.49258050  0.12327750  0.05872525  1
  O  O2065  1  0.49258050  0.12327750  0.30872525  1
  O  O2066  1  0.49258050  0.12327750  0.55872525  1
  O  O2067  1  0.49258050  0.12327750  0.80872525  1
  O  O2068  1  0.49258050  0.37327750  0.05872525  1
  O  O2069  1  0.49258050  0.37327750  0.30872525  1
  O  O2070  1  0.49258050  0.37327750  0.55872525  1
  O  O2071  1  0.49258050  0.37327750  0.80872525  1
  O  O2072  1  0.49258050  0.62327750  0.05872525  1
  O  O2073  1  0.49258050  0.62327750  0.30872525  1
  O  O2074  1  0.49258050  0.62327750  0.55872525  1
  O  O2075  1  0.49258050  0.62327750  0.80872525  1
  O  O2076  1  0.49258050  0.87327750  0.05872525  1
  O  O2077  1  0.49258050  0.87327750  0.30872525  1
  O  O2078  1  0.49258050  0.87327750  0.55872525  1
  O  O2079  1  0.49258050  0.87327750  0.80872525  1
  O  O2080  1  0.74258050  0.12327750  0.05872525  1
  O  O2081  1  0.74258050  0.12327750  0.30872525  1
  O  O2082  1  0.74258050  0.12327750  0.55872525  1
  O  O2083  1  0.74258050  0.12327750  0.80872525  1
  O  O2084  1  0.74258050  0.37327750  0.05872525  1
  O  O2085  1  0.74258050  0.37327750  0.30872525  1
  O  O2086  1  0.74258050  0.37327750  0.55872525  1
  O  O2087  1  0.74258050  0.37327750  0.80872525  1
  O  O2088  1  0.74258050  0.62327750  0.05872525  1
  O  O2089  1  0.74258050  0.62327750  0.30872525  1
  O  O2090  1  0.74258050  0.62327750  0.55872525  1
  O  O2091  1  0.74258050  0.62327750  0.80872525  1
  O  O2092  1  0.74258050  0.87327750  0.05872525  1
  O  O2093  1  0.74258050  0.87327750  0.30872525  1
  O  O2094  1  0.74258050  0.87327750  0.55872525  1
  O  O2095  1  0.74258050  0.87327750  0.80872525  1
  O  O2096  1  0.99258050  0.12327750  0.05872525  1
  O  O2097  1  0.99258050  0.12327750  0.30872525  1
  O  O2098  1  0.99258050  0.12327750  0.55872525  1
  O  O2099  1  0.99258050  0.12327750  0.80872525  1
  O  O2100  1  0.99258050  0.37327750  0.05872525  1
  O  O2101  1  0.99258050  0.37327750  0.30872525  1
  O  O2102  1  0.99258050  0.37327750  0.55872525  1
  O  O2103  1  0.99258050  0.37327750  0.80872525  1
  O  O2104  1  0.99258050  0.62327750  0.05872525  1
  O  O2105  1  0.99258050  0.62327750  0.30872525  1
  O  O2106  1  0.99258050  0.62327750  0.55872525  1
  O  O2107  1  0.99258050  0.62327750  0.80872525  1
  O  O2108  1  0.99258050  0.87327750  0.05872525  1
  O  O2109  1  0.99258050  0.87327750  0.30872525  1
  O  O2110  1  0.99258050  0.87327750  0.55872525  1
  O  O2111  1  0.99258050  0.87327750  0.80872525  1
  O  O2112  1  0.11746200  0.24827325  0.18377100  1
  O  O2113  1  0.11746200  0.24827325  0.43377100  1
  O  O2114  1  0.11746200  0.24827325  0.68377100  1
  O  O2115  1  0.11746200  0.24827325  0.93377100  1
  O  O2116  1  0.11746200  0.49827325  0.18377100  1
  O  O2117  1  0.11746200  0.49827325  0.43377100  1
  O  O2118  1  0.11746200  0.49827325  0.68377100  1
  O  O2119  1  0.11746200  0.49827325  0.93377100  1
  O  O2120  1  0.11746200  0.74827325  0.18377100  1
  O  O2121  1  0.11746200  0.74827325  0.43377100  1
  O  O2122  1  0.11746200  0.74827325  0.68377100  1
  O  O2123  1  0.11746200  0.74827325  0.93377100  1
  O  O2124  1  0.11746200  0.99827325  0.18377100  1
  O  O2125  1  0.11746200  0.99827325  0.43377100  1
  O  O2126  1  0.11746200  0.99827325  0.68377100  1
  O  O2127  1  0.11746200  0.99827325  0.93377100  1
  O  O2128  1  0.36746200  0.24827325  0.18377100  1
  O  O2129  1  0.36746200  0.24827325  0.43377100  1
  O  O2130  1  0.36746200  0.24827325  0.68377100  1
  O  O2131  1  0.36746200  0.24827325  0.93377100  1
  O  O2132  1  0.36746200  0.49827325  0.18377100  1
  O  O2133  1  0.36746200  0.49827325  0.43377100  1
  O  O2134  1  0.36746200  0.49827325  0.68377100  1
  O  O2135  1  0.36746200  0.49827325  0.93377100  1
  O  O2136  1  0.36746200  0.74827325  0.18377100  1
  O  O2137  1  0.36746200  0.74827325  0.43377100  1
  O  O2138  1  0.36746200  0.74827325  0.68377100  1
  O  O2139  1  0.36746200  0.74827325  0.93377100  1
  O  O2140  1  0.36746200  0.99827325  0.18377100  1
  O  O2141  1  0.36746200  0.99827325  0.43377100  1
  O  O2142  1  0.36746200  0.99827325  0.68377100  1
  O  O2143  1  0.36746200  0.99827325  0.93377100  1
  O  O2144  1  0.61746200  0.24827325  0.18377100  1
  O  O2145  1  0.61746200  0.24827325  0.43377100  1
  O  O2146  1  0.61746200  0.24827325  0.68377100  1
  O  O2147  1  0.61746200  0.24827325  0.93377100  1
  O  O2148  1  0.61746200  0.49827325  0.18377100  1
  O  O2149  1  0.61746200  0.49827325  0.43377100  1
  O  O2150  1  0.61746200  0.49827325  0.68377100  1
  O  O2151  1  0.61746200  0.49827325  0.93377100  1
  O  O2152  1  0.61746200  0.74827325  0.18377100  1
  O  O2153  1  0.61746200  0.74827325  0.43377100  1
  O  O2154  1  0.61746200  0.74827325  0.68377100  1
  O  O2155  1  0.61746200  0.74827325  0.93377100  1
  O  O2156  1  0.61746200  0.99827325  0.18377100  1
  O  O2157  1  0.61746200  0.99827325  0.43377100  1
  O  O2158  1  0.61746200  0.99827325  0.68377100  1
  O  O2159  1  0.61746200  0.99827325  0.93377100  1
  O  O2160  1  0.86746200  0.24827325  0.18377100  1
  O  O2161  1  0.86746200  0.24827325  0.43377100  1
  O  O2162  1  0.86746200  0.24827325  0.68377100  1
  O  O2163  1  0.86746200  0.24827325  0.93377100  1
  O  O2164  1  0.86746200  0.49827325  0.18377100  1
  O  O2165  1  0.86746200  0.49827325  0.43377100  1
  O  O2166  1  0.86746200  0.49827325  0.68377100  1
  O  O2167  1  0.86746200  0.49827325  0.93377100  1
  O  O2168  1  0.86746200  0.74827325  0.18377100  1
  O  O2169  1  0.86746200  0.74827325  0.43377100  1
  O  O2170  1  0.86746200  0.74827325  0.68377100  1
  O  O2171  1  0.86746200  0.74827325  0.93377100  1
  O  O2172  1  0.86746200  0.99827325  0.18377100  1
  O  O2173  1  0.86746200  0.99827325  0.43377100  1
  O  O2174  1  0.86746200  0.99827325  0.68377100  1
  O  O2175  1  0.86746200  0.99827325  0.93377100  1
  O  O2176  1  0.06024250  0.04050075  0.14050125  1
  O  O2177  1  0.06024250  0.04050075  0.39050125  1
  O  O2178  1  0.06024250  0.04050075  0.64050125  1
  O  O2179  1  0.06024250  0.04050075  0.89050125  1
  O  O2180  1  0.06024250  0.29050075  0.14050125  1
  O  O2181  1  0.06024250  0.29050075  0.39050125  1
  O  O2182  1  0.06024250  0.29050075  0.64050125  1
  O  O2183  1  0.06024250  0.29050075  0.89050125  1
  O  O2184  1  0.06024250  0.54050075  0.14050125  1
  O  O2185  1  0.06024250  0.54050075  0.39050125  1
  O  O2186  1  0.06024250  0.54050075  0.64050125  1
  O  O2187  1  0.06024250  0.54050075  0.89050125  1
  O  O2188  1  0.06024250  0.79050075  0.14050125  1
  O  O2189  1  0.06024250  0.79050075  0.39050125  1
  O  O2190  1  0.06024250  0.79050075  0.64050125  1
  O  O2191  1  0.06024250  0.79050075  0.89050125  1
  O  O2192  1  0.31024250  0.04050075  0.14050125  1
  O  O2193  1  0.31024250  0.04050075  0.39050125  1
  O  O2194  1  0.31024250  0.04050075  0.64050125  1
  O  O2195  1  0.31024250  0.04050075  0.89050125  1
  O  O2196  1  0.31024250  0.29050075  0.14050125  1
  O  O2197  1  0.31024250  0.29050075  0.39050125  1
  O  O2198  1  0.31024250  0.29050075  0.64050125  1
  O  O2199  1  0.31024250  0.29050075  0.89050125  1
  O  O2200  1  0.31024250  0.54050075  0.14050125  1
  O  O2201  1  0.31024250  0.54050075  0.39050125  1
  O  O2202  1  0.31024250  0.54050075  0.64050125  1
  O  O2203  1  0.31024250  0.54050075  0.89050125  1
  O  O2204  1  0.31024250  0.79050075  0.14050125  1
  O  O2205  1  0.31024250  0.79050075  0.39050125  1
  O  O2206  1  0.31024250  0.79050075  0.64050125  1
  O  O2207  1  0.31024250  0.79050075  0.89050125  1
  O  O2208  1  0.56024250  0.04050075  0.14050125  1
  O  O2209  1  0.56024250  0.04050075  0.39050125  1
  O  O2210  1  0.56024250  0.04050075  0.64050125  1
  O  O2211  1  0.56024250  0.04050075  0.89050125  1
  O  O2212  1  0.56024250  0.29050075  0.14050125  1
  O  O2213  1  0.56024250  0.29050075  0.39050125  1
  O  O2214  1  0.56024250  0.29050075  0.64050125  1
  O  O2215  1  0.56024250  0.29050075  0.89050125  1
  O  O2216  1  0.56024250  0.54050075  0.14050125  1
  O  O2217  1  0.56024250  0.54050075  0.39050125  1
  O  O2218  1  0.56024250  0.54050075  0.64050125  1
  O  O2219  1  0.56024250  0.54050075  0.89050125  1
  O  O2220  1  0.56024250  0.79050075  0.14050125  1
  O  O2221  1  0.56024250  0.79050075  0.39050125  1
  O  O2222  1  0.56024250  0.79050075  0.64050125  1
  O  O2223  1  0.56024250  0.79050075  0.89050125  1
  O  O2224  1  0.81024250  0.04050075  0.14050125  1
  O  O2225  1  0.81024250  0.04050075  0.39050125  1
  O  O2226  1  0.81024250  0.04050075  0.64050125  1
  O  O2227  1  0.81024250  0.04050075  0.89050125  1
  O  O2228  1  0.81024250  0.29050075  0.14050125  1
  O  O2229  1  0.81024250  0.29050075  0.39050125  1
  O  O2230  1  0.81024250  0.29050075  0.64050125  1
  O  O2231  1  0.81024250  0.29050075  0.89050125  1
  O  O2232  1  0.81024250  0.54050075  0.14050125  1
  O  O2233  1  0.81024250  0.54050075  0.39050125  1
  O  O2234  1  0.81024250  0.54050075  0.64050125  1
  O  O2235  1  0.81024250  0.54050075  0.89050125  1
  O  O2236  1  0.81024250  0.79050075  0.14050125  1
  O  O2237  1  0.81024250  0.79050075  0.39050125  1
  O  O2238  1  0.81024250  0.79050075  0.64050125  1
  O  O2239  1  0.81024250  0.79050075  0.89050125  1
  O  O2240  1  0.18525225  0.16545500  0.01545225  1
  O  O2241  1  0.18525225  0.16545500  0.26545225  1
  O  O2242  1  0.18525225  0.16545500  0.51545225  1
  O  O2243  1  0.18525225  0.16545500  0.76545225  1
  O  O2244  1  0.18525225  0.41545500  0.01545225  1
  O  O2245  1  0.18525225  0.41545500  0.26545225  1
  O  O2246  1  0.18525225  0.41545500  0.51545225  1
  O  O2247  1  0.18525225  0.41545500  0.76545225  1
  O  O2248  1  0.18525225  0.66545500  0.01545225  1
  O  O2249  1  0.18525225  0.66545500  0.26545225  1
  O  O2250  1  0.18525225  0.66545500  0.51545225  1
  O  O2251  1  0.18525225  0.66545500  0.76545225  1
  O  O2252  1  0.18525225  0.91545500  0.01545225  1
  O  O2253  1  0.18525225  0.91545500  0.26545225  1
  O  O2254  1  0.18525225  0.91545500  0.51545225  1
  O  O2255  1  0.18525225  0.91545500  0.76545225  1
  O  O2256  1  0.43525225  0.16545500  0.01545225  1
  O  O2257  1  0.43525225  0.16545500  0.26545225  1
  O  O2258  1  0.43525225  0.16545500  0.51545225  1
  O  O2259  1  0.43525225  0.16545500  0.76545225  1
  O  O2260  1  0.43525225  0.41545500  0.01545225  1
  O  O2261  1  0.43525225  0.41545500  0.26545225  1
  O  O2262  1  0.43525225  0.41545500  0.51545225  1
  O  O2263  1  0.43525225  0.41545500  0.76545225  1
  O  O2264  1  0.43525225  0.66545500  0.01545225  1
  O  O2265  1  0.43525225  0.66545500  0.26545225  1
  O  O2266  1  0.43525225  0.66545500  0.51545225  1
  O  O2267  1  0.43525225  0.66545500  0.76545225  1
  O  O2268  1  0.43525225  0.91545500  0.01545225  1
  O  O2269  1  0.43525225  0.91545500  0.26545225  1
  O  O2270  1  0.43525225  0.91545500  0.51545225  1
  O  O2271  1  0.43525225  0.91545500  0.76545225  1
  O  O2272  1  0.68525225  0.16545500  0.01545225  1
  O  O2273  1  0.68525225  0.16545500  0.26545225  1
  O  O2274  1  0.68525225  0.16545500  0.51545225  1
  O  O2275  1  0.68525225  0.16545500  0.76545225  1
  O  O2276  1  0.68525225  0.41545500  0.01545225  1
  O  O2277  1  0.68525225  0.41545500  0.26545225  1
  O  O2278  1  0.68525225  0.41545500  0.51545225  1
  O  O2279  1  0.68525225  0.41545500  0.76545225  1
  O  O2280  1  0.68525225  0.66545500  0.01545225  1
  O  O2281  1  0.68525225  0.66545500  0.26545225  1
  O  O2282  1  0.68525225  0.66545500  0.51545225  1
  O  O2283  1  0.68525225  0.66545500  0.76545225  1
  O  O2284  1  0.68525225  0.91545500  0.01545225  1
  O  O2285  1  0.68525225  0.91545500  0.26545225  1
  O  O2286  1  0.68525225  0.91545500  0.51545225  1
  O  O2287  1  0.68525225  0.91545500  0.76545225  1
  O  O2288  1  0.93525225  0.16545500  0.01545225  1
  O  O2289  1  0.93525225  0.16545500  0.26545225  1
  O  O2290  1  0.93525225  0.16545500  0.51545225  1
  O  O2291  1  0.93525225  0.16545500  0.76545225  1
  O  O2292  1  0.93525225  0.41545500  0.01545225  1
  O  O2293  1  0.93525225  0.41545500  0.26545225  1
  O  O2294  1  0.93525225  0.41545500  0.51545225  1
  O  O2295  1  0.93525225  0.41545500  0.76545225  1
  O  O2296  1  0.93525225  0.66545500  0.01545225  1
  O  O2297  1  0.93525225  0.66545500  0.26545225  1
  O  O2298  1  0.93525225  0.66545500  0.51545225  1
  O  O2299  1  0.93525225  0.66545500  0.76545225  1
  O  O2300  1  0.93525225  0.91545500  0.01545225  1
  O  O2301  1  0.93525225  0.91545500  0.26545225  1
  O  O2302  1  0.93525225  0.91545500  0.51545225  1
  O  O2303  1  0.93525225  0.91545500  0.76545225  1
  O  O2304  1  0.06474425  0.08454400  0.23454875  1
  O  O2305  1  0.06474425  0.08454400  0.48454875  1
  O  O2306  1  0.06474425  0.08454400  0.73454875  1
  O  O2307  1  0.06474425  0.08454400  0.98454875  1
  O  O2308  1  0.06474425  0.33454400  0.23454875  1
  O  O2309  1  0.06474425  0.33454400  0.48454875  1
  O  O2310  1  0.06474425  0.33454400  0.73454875  1
  O  O2311  1  0.06474425  0.33454400  0.98454875  1
  O  O2312  1  0.06474425  0.58454400  0.23454875  1
  O  O2313  1  0.06474425  0.58454400  0.48454875  1
  O  O2314  1  0.06474425  0.58454400  0.73454875  1
  O  O2315  1  0.06474425  0.58454400  0.98454875  1
  O  O2316  1  0.06474425  0.83454400  0.23454875  1
  O  O2317  1  0.06474425  0.83454400  0.48454875  1
  O  O2318  1  0.06474425  0.83454400  0.73454875  1
  O  O2319  1  0.06474425  0.83454400  0.98454875  1
  O  O2320  1  0.31474425  0.08454400  0.23454875  1
  O  O2321  1  0.31474425  0.08454400  0.48454875  1
  O  O2322  1  0.31474425  0.08454400  0.73454875  1
  O  O2323  1  0.31474425  0.08454400  0.98454875  1
  O  O2324  1  0.31474425  0.33454400  0.23454875  1
  O  O2325  1  0.31474425  0.33454400  0.48454875  1
  O  O2326  1  0.31474425  0.33454400  0.73454875  1
  O  O2327  1  0.31474425  0.33454400  0.98454875  1
  O  O2328  1  0.31474425  0.58454400  0.23454875  1
  O  O2329  1  0.31474425  0.58454400  0.48454875  1
  O  O2330  1  0.31474425  0.58454400  0.73454875  1
  O  O2331  1  0.31474425  0.58454400  0.98454875  1
  O  O2332  1  0.31474425  0.83454400  0.23454875  1
  O  O2333  1  0.31474425  0.83454400  0.48454875  1
  O  O2334  1  0.31474425  0.83454400  0.73454875  1
  O  O2335  1  0.31474425  0.83454400  0.98454875  1
  O  O2336  1  0.56474425  0.08454400  0.23454875  1
  O  O2337  1  0.56474425  0.08454400  0.48454875  1
  O  O2338  1  0.56474425  0.08454400  0.73454875  1
  O  O2339  1  0.56474425  0.08454400  0.98454875  1
  O  O2340  1  0.56474425  0.33454400  0.23454875  1
  O  O2341  1  0.56474425  0.33454400  0.48454875  1
  O  O2342  1  0.56474425  0.33454400  0.73454875  1
  O  O2343  1  0.56474425  0.33454400  0.98454875  1
  O  O2344  1  0.56474425  0.58454400  0.23454875  1
  O  O2345  1  0.56474425  0.58454400  0.48454875  1
  O  O2346  1  0.56474425  0.58454400  0.73454875  1
  O  O2347  1  0.56474425  0.58454400  0.98454875  1
  O  O2348  1  0.56474425  0.83454400  0.23454875  1
  O  O2349  1  0.56474425  0.83454400  0.48454875  1
  O  O2350  1  0.56474425  0.83454400  0.73454875  1
  O  O2351  1  0.56474425  0.83454400  0.98454875  1
  O  O2352  1  0.81474425  0.08454400  0.23454875  1
  O  O2353  1  0.81474425  0.08454400  0.48454875  1
  O  O2354  1  0.81474425  0.08454400  0.73454875  1
  O  O2355  1  0.81474425  0.08454400  0.98454875  1
  O  O2356  1  0.81474425  0.33454400  0.23454875  1
  O  O2357  1  0.81474425  0.33454400  0.48454875  1
  O  O2358  1  0.81474425  0.33454400  0.73454875  1
  O  O2359  1  0.81474425  0.33454400  0.98454875  1
  O  O2360  1  0.81474425  0.58454400  0.23454875  1
  O  O2361  1  0.81474425  0.58454400  0.48454875  1
  O  O2362  1  0.81474425  0.58454400  0.73454875  1
  O  O2363  1  0.81474425  0.58454400  0.98454875  1
  O  O2364  1  0.81474425  0.83454400  0.23454875  1
  O  O2365  1  0.81474425  0.83454400  0.48454875  1
  O  O2366  1  0.81474425  0.83454400  0.73454875  1
  O  O2367  1  0.81474425  0.83454400  0.98454875  1
  O  O2368  1  0.18976300  0.20950225  0.10949725  1
  O  O2369  1  0.18976300  0.20950225  0.35949725  1
  O  O2370  1  0.18976300  0.20950225  0.60949725  1
  O  O2371  1  0.18976300  0.20950225  0.85949725  1
  O  O2372  1  0.18976300  0.45950225  0.10949725  1
  O  O2373  1  0.18976300  0.45950225  0.35949725  1
  O  O2374  1  0.18976300  0.45950225  0.60949725  1
  O  O2375  1  0.18976300  0.45950225  0.85949725  1
  O  O2376  1  0.18976300  0.70950225  0.10949725  1
  O  O2377  1  0.18976300  0.70950225  0.35949725  1
  O  O2378  1  0.18976300  0.70950225  0.60949725  1
  O  O2379  1  0.18976300  0.70950225  0.85949725  1
  O  O2380  1  0.18976300  0.95950225  0.10949725  1
  O  O2381  1  0.18976300  0.95950225  0.35949725  1
  O  O2382  1  0.18976300  0.95950225  0.60949725  1
  O  O2383  1  0.18976300  0.95950225  0.85949725  1
  O  O2384  1  0.43976300  0.20950225  0.10949725  1
  O  O2385  1  0.43976300  0.20950225  0.35949725  1
  O  O2386  1  0.43976300  0.20950225  0.60949725  1
  O  O2387  1  0.43976300  0.20950225  0.85949725  1
  O  O2388  1  0.43976300  0.45950225  0.10949725  1
  O  O2389  1  0.43976300  0.45950225  0.35949725  1
  O  O2390  1  0.43976300  0.45950225  0.60949725  1
  O  O2391  1  0.43976300  0.45950225  0.85949725  1
  O  O2392  1  0.43976300  0.70950225  0.10949725  1
  O  O2393  1  0.43976300  0.70950225  0.35949725  1
  O  O2394  1  0.43976300  0.70950225  0.60949725  1
  O  O2395  1  0.43976300  0.70950225  0.85949725  1
  O  O2396  1  0.43976300  0.95950225  0.10949725  1
  O  O2397  1  0.43976300  0.95950225  0.35949725  1
  O  O2398  1  0.43976300  0.95950225  0.60949725  1
  O  O2399  1  0.43976300  0.95950225  0.85949725  1
  O  O2400  1  0.68976300  0.20950225  0.10949725  1
  O  O2401  1  0.68976300  0.20950225  0.35949725  1
  O  O2402  1  0.68976300  0.20950225  0.60949725  1
  O  O2403  1  0.68976300  0.20950225  0.85949725  1
  O  O2404  1  0.68976300  0.45950225  0.10949725  1
  O  O2405  1  0.68976300  0.45950225  0.35949725  1
  O  O2406  1  0.68976300  0.45950225  0.60949725  1
  O  O2407  1  0.68976300  0.45950225  0.85949725  1
  O  O2408  1  0.68976300  0.70950225  0.10949725  1
  O  O2409  1  0.68976300  0.70950225  0.35949725  1
  O  O2410  1  0.68976300  0.70950225  0.60949725  1
  O  O2411  1  0.68976300  0.70950225  0.85949725  1
  O  O2412  1  0.68976300  0.95950225  0.10949725  1
  O  O2413  1  0.68976300  0.95950225  0.35949725  1
  O  O2414  1  0.68976300  0.95950225  0.60949725  1
  O  O2415  1  0.68976300  0.95950225  0.85949725  1
  O  O2416  1  0.93976300  0.20950225  0.10949725  1
  O  O2417  1  0.93976300  0.20950225  0.35949725  1
  O  O2418  1  0.93976300  0.20950225  0.60949725  1
  O  O2419  1  0.93976300  0.20950225  0.85949725  1
  O  O2420  1  0.93976300  0.45950225  0.10949725  1
  O  O2421  1  0.93976300  0.45950225  0.35949725  1
  O  O2422  1  0.93976300  0.45950225  0.60949725  1
  O  O2423  1  0.93976300  0.45950225  0.85949725  1
  O  O2424  1  0.93976300  0.70950225  0.10949725  1
  O  O2425  1  0.93976300  0.70950225  0.35949725  1
  O  O2426  1  0.93976300  0.70950225  0.60949725  1
  O  O2427  1  0.93976300  0.70950225  0.85949725  1
  O  O2428  1  0.93976300  0.95950225  0.10949725  1
  O  O2429  1  0.93976300  0.95950225  0.35949725  1
  O  O2430  1  0.93976300  0.95950225  0.60949725  1
  O  O2431  1  0.93976300  0.95950225  0.85949725  1
  O  O2432  1  0.23294925  0.02371450  0.04393400  1
  O  O2433  1  0.23294925  0.02371450  0.29393400  1
  O  O2434  1  0.23294925  0.02371450  0.54393400  1
  O  O2435  1  0.23294925  0.02371450  0.79393400  1
  O  O2436  1  0.23294925  0.27371450  0.04393400  1
  O  O2437  1  0.23294925  0.27371450  0.29393400  1
  O  O2438  1  0.23294925  0.27371450  0.54393400  1
  O  O2439  1  0.23294925  0.27371450  0.79393400  1
  O  O2440  1  0.23294925  0.52371450  0.04393400  1
  O  O2441  1  0.23294925  0.52371450  0.29393400  1
  O  O2442  1  0.23294925  0.52371450  0.54393400  1
  O  O2443  1  0.23294925  0.52371450  0.79393400  1
  O  O2444  1  0.23294925  0.77371450  0.04393400  1
  O  O2445  1  0.23294925  0.77371450  0.29393400  1
  O  O2446  1  0.23294925  0.77371450  0.54393400  1
  O  O2447  1  0.23294925  0.77371450  0.79393400  1
  O  O2448  1  0.48294925  0.02371450  0.04393400  1
  O  O2449  1  0.48294925  0.02371450  0.29393400  1
  O  O2450  1  0.48294925  0.02371450  0.54393400  1
  O  O2451  1  0.48294925  0.02371450  0.79393400  1
  O  O2452  1  0.48294925  0.27371450  0.04393400  1
  O  O2453  1  0.48294925  0.27371450  0.29393400  1
  O  O2454  1  0.48294925  0.27371450  0.54393400  1
  O  O2455  1  0.48294925  0.27371450  0.79393400  1
  O  O2456  1  0.48294925  0.52371450  0.04393400  1
  O  O2457  1  0.48294925  0.52371450  0.29393400  1
  O  O2458  1  0.48294925  0.52371450  0.54393400  1
  O  O2459  1  0.48294925  0.52371450  0.79393400  1
  O  O2460  1  0.48294925  0.77371450  0.04393400  1
  O  O2461  1  0.48294925  0.77371450  0.29393400  1
  O  O2462  1  0.48294925  0.77371450  0.54393400  1
  O  O2463  1  0.48294925  0.77371450  0.79393400  1
  O  O2464  1  0.73294925  0.02371450  0.04393400  1
  O  O2465  1  0.73294925  0.02371450  0.29393400  1
  O  O2466  1  0.73294925  0.02371450  0.54393400  1
  O  O2467  1  0.73294925  0.02371450  0.79393400  1
  O  O2468  1  0.73294925  0.27371450  0.04393400  1
  O  O2469  1  0.73294925  0.27371450  0.29393400  1
  O  O2470  1  0.73294925  0.27371450  0.54393400  1
  O  O2471  1  0.73294925  0.27371450  0.79393400  1
  O  O2472  1  0.73294925  0.52371450  0.04393400  1
  O  O2473  1  0.73294925  0.52371450  0.29393400  1
  O  O2474  1  0.73294925  0.52371450  0.54393400  1
  O  O2475  1  0.73294925  0.52371450  0.79393400  1
  O  O2476  1  0.73294925  0.77371450  0.04393400  1
  O  O2477  1  0.73294925  0.77371450  0.29393400  1
  O  O2478  1  0.73294925  0.77371450  0.54393400  1
  O  O2479  1  0.73294925  0.77371450  0.79393400  1
  O  O2480  1  0.98294925  0.02371450  0.04393400  1
  O  O2481  1  0.98294925  0.02371450  0.29393400  1
  O  O2482  1  0.98294925  0.02371450  0.54393400  1
  O  O2483  1  0.98294925  0.02371450  0.79393400  1
  O  O2484  1  0.98294925  0.27371450  0.04393400  1
  O  O2485  1  0.98294925  0.27371450  0.29393400  1
  O  O2486  1  0.98294925  0.27371450  0.54393400  1
  O  O2487  1  0.98294925  0.27371450  0.79393400  1
  O  O2488  1  0.98294925  0.52371450  0.04393400  1
  O  O2489  1  0.98294925  0.52371450  0.29393400  1
  O  O2490  1  0.98294925  0.52371450  0.54393400  1
  O  O2491  1  0.98294925  0.52371450  0.79393400  1
  O  O2492  1  0.98294925  0.77371450  0.04393400  1
  O  O2493  1  0.98294925  0.77371450  0.29393400  1
  O  O2494  1  0.98294925  0.77371450  0.54393400  1
  O  O2495  1  0.98294925  0.77371450  0.79393400  1
  O  O2496  1  0.10794100  0.14864125  0.16907025  1
  O  O2497  1  0.10794100  0.14864125  0.41907025  1
  O  O2498  1  0.10794100  0.14864125  0.66907025  1
  O  O2499  1  0.10794100  0.14864125  0.91907025  1
  O  O2500  1  0.10794100  0.39864125  0.16907025  1
  O  O2501  1  0.10794100  0.39864125  0.41907025  1
  O  O2502  1  0.10794100  0.39864125  0.66907025  1
  O  O2503  1  0.10794100  0.39864125  0.91907025  1
  O  O2504  1  0.10794100  0.64864125  0.16907025  1
  O  O2505  1  0.10794100  0.64864125  0.41907025  1
  O  O2506  1  0.10794100  0.64864125  0.66907025  1
  O  O2507  1  0.10794100  0.64864125  0.91907025  1
  O  O2508  1  0.10794100  0.89864125  0.16907025  1
  O  O2509  1  0.10794100  0.89864125  0.41907025  1
  O  O2510  1  0.10794100  0.89864125  0.66907025  1
  O  O2511  1  0.10794100  0.89864125  0.91907025  1
  O  O2512  1  0.35794100  0.14864125  0.16907025  1
  O  O2513  1  0.35794100  0.14864125  0.41907025  1
  O  O2514  1  0.35794100  0.14864125  0.66907025  1
  O  O2515  1  0.35794100  0.14864125  0.91907025  1
  O  O2516  1  0.35794100  0.39864125  0.16907025  1
  O  O2517  1  0.35794100  0.39864125  0.41907025  1
  O  O2518  1  0.35794100  0.39864125  0.66907025  1
  O  O2519  1  0.35794100  0.39864125  0.91907025  1
  O  O2520  1  0.35794100  0.64864125  0.16907025  1
  O  O2521  1  0.35794100  0.64864125  0.41907025  1
  O  O2522  1  0.35794100  0.64864125  0.66907025  1
  O  O2523  1  0.35794100  0.64864125  0.91907025  1
  O  O2524  1  0.35794100  0.89864125  0.16907025  1
  O  O2525  1  0.35794100  0.89864125  0.41907025  1
  O  O2526  1  0.35794100  0.89864125  0.66907025  1
  O  O2527  1  0.35794100  0.89864125  0.91907025  1
  O  O2528  1  0.60794100  0.14864125  0.16907025  1
  O  O2529  1  0.60794100  0.14864125  0.41907025  1
  O  O2530  1  0.60794100  0.14864125  0.66907025  1
  O  O2531  1  0.60794100  0.14864125  0.91907025  1
  O  O2532  1  0.60794100  0.39864125  0.16907025  1
  O  O2533  1  0.60794100  0.39864125  0.41907025  1
  O  O2534  1  0.60794100  0.39864125  0.66907025  1
  O  O2535  1  0.60794100  0.39864125  0.91907025  1
  O  O2536  1  0.60794100  0.64864125  0.16907025  1
  O  O2537  1  0.60794100  0.64864125  0.41907025  1
  O  O2538  1  0.60794100  0.64864125  0.66907025  1
  O  O2539  1  0.60794100  0.64864125  0.91907025  1
  O  O2540  1  0.60794100  0.89864125  0.16907025  1
  O  O2541  1  0.60794100  0.89864125  0.41907025  1
  O  O2542  1  0.60794100  0.89864125  0.66907025  1
  O  O2543  1  0.60794100  0.89864125  0.91907025  1
  O  O2544  1  0.85794100  0.14864125  0.16907025  1
  O  O2545  1  0.85794100  0.14864125  0.41907025  1
  O  O2546  1  0.85794100  0.14864125  0.66907025  1
  O  O2547  1  0.85794100  0.14864125  0.91907025  1
  O  O2548  1  0.85794100  0.39864125  0.16907025  1
  O  O2549  1  0.85794100  0.39864125  0.41907025  1
  O  O2550  1  0.85794100  0.39864125  0.66907025  1
  O  O2551  1  0.85794100  0.39864125  0.91907025  1
  O  O2552  1  0.85794100  0.64864125  0.16907025  1
  O  O2553  1  0.85794100  0.64864125  0.41907025  1
  O  O2554  1  0.85794100  0.64864125  0.66907025  1
  O  O2555  1  0.85794100  0.64864125  0.91907025  1
  O  O2556  1  0.85794100  0.89864125  0.16907025  1
  O  O2557  1  0.85794100  0.89864125  0.41907025  1
  O  O2558  1  0.85794100  0.89864125  0.66907025  1
  O  O2559  1  0.85794100  0.89864125  0.91907025  1
  O  O2560  1  0.14205100  0.10135900  0.08093175  1
  O  O2561  1  0.14205100  0.10135900  0.33093175  1
  O  O2562  1  0.14205100  0.10135900  0.58093175  1
  O  O2563  1  0.14205100  0.10135900  0.83093175  1
  O  O2564  1  0.14205100  0.35135900  0.08093175  1
  O  O2565  1  0.14205100  0.35135900  0.33093175  1
  O  O2566  1  0.14205100  0.35135900  0.58093175  1
  O  O2567  1  0.14205100  0.35135900  0.83093175  1
  O  O2568  1  0.14205100  0.60135900  0.08093175  1
  O  O2569  1  0.14205100  0.60135900  0.33093175  1
  O  O2570  1  0.14205100  0.60135900  0.58093175  1
  O  O2571  1  0.14205100  0.60135900  0.83093175  1
  O  O2572  1  0.14205100  0.85135900  0.08093175  1
  O  O2573  1  0.14205100  0.85135900  0.33093175  1
  O  O2574  1  0.14205100  0.85135900  0.58093175  1
  O  O2575  1  0.14205100  0.85135900  0.83093175  1
  O  O2576  1  0.39205100  0.10135900  0.08093175  1
  O  O2577  1  0.39205100  0.10135900  0.33093175  1
  O  O2578  1  0.39205100  0.10135900  0.58093175  1
  O  O2579  1  0.39205100  0.10135900  0.83093175  1
  O  O2580  1  0.39205100  0.35135900  0.08093175  1
  O  O2581  1  0.39205100  0.35135900  0.33093175  1
  O  O2582  1  0.39205100  0.35135900  0.58093175  1
  O  O2583  1  0.39205100  0.35135900  0.83093175  1
  O  O2584  1  0.39205100  0.60135900  0.08093175  1
  O  O2585  1  0.39205100  0.60135900  0.33093175  1
  O  O2586  1  0.39205100  0.60135900  0.58093175  1
  O  O2587  1  0.39205100  0.60135900  0.83093175  1
  O  O2588  1  0.39205100  0.85135900  0.08093175  1
  O  O2589  1  0.39205100  0.85135900  0.33093175  1
  O  O2590  1  0.39205100  0.85135900  0.58093175  1
  O  O2591  1  0.39205100  0.85135900  0.83093175  1
  O  O2592  1  0.64205100  0.10135900  0.08093175  1
  O  O2593  1  0.64205100  0.10135900  0.33093175  1
  O  O2594  1  0.64205100  0.10135900  0.58093175  1
  O  O2595  1  0.64205100  0.10135900  0.83093175  1
  O  O2596  1  0.64205100  0.35135900  0.08093175  1
  O  O2597  1  0.64205100  0.35135900  0.33093175  1
  O  O2598  1  0.64205100  0.35135900  0.58093175  1
  O  O2599  1  0.64205100  0.35135900  0.83093175  1
  O  O2600  1  0.64205100  0.60135900  0.08093175  1
  O  O2601  1  0.64205100  0.60135900  0.33093175  1
  O  O2602  1  0.64205100  0.60135900  0.58093175  1
  O  O2603  1  0.64205100  0.60135900  0.83093175  1
  O  O2604  1  0.64205100  0.85135900  0.08093175  1
  O  O2605  1  0.64205100  0.85135900  0.33093175  1
  O  O2606  1  0.64205100  0.85135900  0.58093175  1
  O  O2607  1  0.64205100  0.85135900  0.83093175  1
  O  O2608  1  0.89205100  0.10135900  0.08093175  1
  O  O2609  1  0.89205100  0.10135900  0.33093175  1
  O  O2610  1  0.89205100  0.10135900  0.58093175  1
  O  O2611  1  0.89205100  0.10135900  0.83093175  1
  O  O2612  1  0.89205100  0.35135900  0.08093175  1
  O  O2613  1  0.89205100  0.35135900  0.33093175  1
  O  O2614  1  0.89205100  0.35135900  0.58093175  1
  O  O2615  1  0.89205100  0.35135900  0.83093175  1
  O  O2616  1  0.89205100  0.60135900  0.08093175  1
  O  O2617  1  0.89205100  0.60135900  0.33093175  1
  O  O2618  1  0.89205100  0.60135900  0.58093175  1
  O  O2619  1  0.89205100  0.60135900  0.83093175  1
  O  O2620  1  0.89205100  0.85135900  0.08093175  1
  O  O2621  1  0.89205100  0.85135900  0.33093175  1
  O  O2622  1  0.89205100  0.85135900  0.58093175  1
  O  O2623  1  0.89205100  0.85135900  0.83093175  1
  O  O2624  1  0.01705425  0.22628000  0.20605875  1
  O  O2625  1  0.01705425  0.22628000  0.45605875  1
  O  O2626  1  0.01705425  0.22628000  0.70605875  1
  O  O2627  1  0.01705425  0.22628000  0.95605875  1
  O  O2628  1  0.01705425  0.47628000  0.20605875  1
  O  O2629  1  0.01705425  0.47628000  0.45605875  1
  O  O2630  1  0.01705425  0.47628000  0.70605875  1
  O  O2631  1  0.01705425  0.47628000  0.95605875  1
  O  O2632  1  0.01705425  0.72628000  0.20605875  1
  O  O2633  1  0.01705425  0.72628000  0.45605875  1
  O  O2634  1  0.01705425  0.72628000  0.70605875  1
  O  O2635  1  0.01705425  0.72628000  0.95605875  1
  O  O2636  1  0.01705425  0.97628000  0.20605875  1
  O  O2637  1  0.01705425  0.97628000  0.45605875  1
  O  O2638  1  0.01705425  0.97628000  0.70605875  1
  O  O2639  1  0.01705425  0.97628000  0.95605875  1
  O  O2640  1  0.26705425  0.22628000  0.20605875  1
  O  O2641  1  0.26705425  0.22628000  0.45605875  1
  O  O2642  1  0.26705425  0.22628000  0.70605875  1
  O  O2643  1  0.26705425  0.22628000  0.95605875  1
  O  O2644  1  0.26705425  0.47628000  0.20605875  1
  O  O2645  1  0.26705425  0.47628000  0.45605875  1
  O  O2646  1  0.26705425  0.47628000  0.70605875  1
  O  O2647  1  0.26705425  0.47628000  0.95605875  1
  O  O2648  1  0.26705425  0.72628000  0.20605875  1
  O  O2649  1  0.26705425  0.72628000  0.45605875  1
  O  O2650  1  0.26705425  0.72628000  0.70605875  1
  O  O2651  1  0.26705425  0.72628000  0.95605875  1
  O  O2652  1  0.26705425  0.97628000  0.20605875  1
  O  O2653  1  0.26705425  0.97628000  0.45605875  1
  O  O2654  1  0.26705425  0.97628000  0.70605875  1
  O  O2655  1  0.26705425  0.97628000  0.95605875  1
  O  O2656  1  0.51705425  0.22628000  0.20605875  1
  O  O2657  1  0.51705425  0.22628000  0.45605875  1
  O  O2658  1  0.51705425  0.22628000  0.70605875  1
  O  O2659  1  0.51705425  0.22628000  0.95605875  1
  O  O2660  1  0.51705425  0.47628000  0.20605875  1
  O  O2661  1  0.51705425  0.47628000  0.45605875  1
  O  O2662  1  0.51705425  0.47628000  0.70605875  1
  O  O2663  1  0.51705425  0.47628000  0.95605875  1
  O  O2664  1  0.51705425  0.72628000  0.20605875  1
  O  O2665  1  0.51705425  0.72628000  0.45605875  1
  O  O2666  1  0.51705425  0.72628000  0.70605875  1
  O  O2667  1  0.51705425  0.72628000  0.95605875  1
  O  O2668  1  0.51705425  0.97628000  0.20605875  1
  O  O2669  1  0.51705425  0.97628000  0.45605875  1
  O  O2670  1  0.51705425  0.97628000  0.70605875  1
  O  O2671  1  0.51705425  0.97628000  0.95605875  1
  O  O2672  1  0.76705425  0.22628000  0.20605875  1
  O  O2673  1  0.76705425  0.22628000  0.45605875  1
  O  O2674  1  0.76705425  0.22628000  0.70605875  1
  O  O2675  1  0.76705425  0.22628000  0.95605875  1
  O  O2676  1  0.76705425  0.47628000  0.20605875  1
  O  O2677  1  0.76705425  0.47628000  0.45605875  1
  O  O2678  1  0.76705425  0.47628000  0.70605875  1
  O  O2679  1  0.76705425  0.47628000  0.95605875  1
  O  O2680  1  0.76705425  0.72628000  0.20605875  1
  O  O2681  1  0.76705425  0.72628000  0.45605875  1
  O  O2682  1  0.76705425  0.72628000  0.70605875  1
  O  O2683  1  0.76705425  0.72628000  0.95605875  1
  O  O2684  1  0.76705425  0.97628000  0.20605875  1
  O  O2685  1  0.76705425  0.97628000  0.45605875  1
  O  O2686  1  0.76705425  0.97628000  0.70605875  1
  O  O2687  1  0.76705425  0.97628000  0.95605875  1
  O  O2688  1  0.12485350  0.05053100  0.06061475  1
  O  O2689  1  0.12485350  0.05053100  0.31061475  1
  O  O2690  1  0.12485350  0.05053100  0.56061475  1
  O  O2691  1  0.12485350  0.05053100  0.81061475  1
  O  O2692  1  0.12485350  0.30053100  0.06061475  1
  O  O2693  1  0.12485350  0.30053100  0.31061475  1
  O  O2694  1  0.12485350  0.30053100  0.56061475  1
  O  O2695  1  0.12485350  0.30053100  0.81061475  1
  O  O2696  1  0.12485350  0.55053100  0.06061475  1
  O  O2697  1  0.12485350  0.55053100  0.31061475  1
  O  O2698  1  0.12485350  0.55053100  0.56061475  1
  O  O2699  1  0.12485350  0.55053100  0.81061475  1
  O  O2700  1  0.12485350  0.80053100  0.06061475  1
  O  O2701  1  0.12485350  0.80053100  0.31061475  1
  O  O2702  1  0.12485350  0.80053100  0.56061475  1
  O  O2703  1  0.12485350  0.80053100  0.81061475  1
  O  O2704  1  0.37485350  0.05053100  0.06061475  1
  O  O2705  1  0.37485350  0.05053100  0.31061475  1
  O  O2706  1  0.37485350  0.05053100  0.56061475  1
  O  O2707  1  0.37485350  0.05053100  0.81061475  1
  O  O2708  1  0.37485350  0.30053100  0.06061475  1
  O  O2709  1  0.37485350  0.30053100  0.31061475  1
  O  O2710  1  0.37485350  0.30053100  0.56061475  1
  O  O2711  1  0.37485350  0.30053100  0.81061475  1
  O  O2712  1  0.37485350  0.55053100  0.06061475  1
  O  O2713  1  0.37485350  0.55053100  0.31061475  1
  O  O2714  1  0.37485350  0.55053100  0.56061475  1
  O  O2715  1  0.37485350  0.55053100  0.81061475  1
  O  O2716  1  0.37485350  0.80053100  0.06061475  1
  O  O2717  1  0.37485350  0.80053100  0.31061475  1
  O  O2718  1  0.37485350  0.80053100  0.56061475  1
  O  O2719  1  0.37485350  0.80053100  0.81061475  1
  O  O2720  1  0.62485350  0.05053100  0.06061475  1
  O  O2721  1  0.62485350  0.05053100  0.31061475  1
  O  O2722  1  0.62485350  0.05053100  0.56061475  1
  O  O2723  1  0.62485350  0.05053100  0.81061475  1
  O  O2724  1  0.62485350  0.30053100  0.06061475  1
  O  O2725  1  0.62485350  0.30053100  0.31061475  1
  O  O2726  1  0.62485350  0.30053100  0.56061475  1
  O  O2727  1  0.62485350  0.30053100  0.81061475  1
  O  O2728  1  0.62485350  0.55053100  0.06061475  1
  O  O2729  1  0.62485350  0.55053100  0.31061475  1
  O  O2730  1  0.62485350  0.55053100  0.56061475  1
  O  O2731  1  0.62485350  0.55053100  0.81061475  1
  O  O2732  1  0.62485350  0.80053100  0.06061475  1
  O  O2733  1  0.62485350  0.80053100  0.31061475  1
  O  O2734  1  0.62485350  0.80053100  0.56061475  1
  O  O2735  1  0.62485350  0.80053100  0.81061475  1
  O  O2736  1  0.87485350  0.05053100  0.06061475  1
  O  O2737  1  0.87485350  0.05053100  0.31061475  1
  O  O2738  1  0.87485350  0.05053100  0.56061475  1
  O  O2739  1  0.87485350  0.05053100  0.81061475  1
  O  O2740  1  0.87485350  0.30053100  0.06061475  1
  O  O2741  1  0.87485350  0.30053100  0.31061475  1
  O  O2742  1  0.87485350  0.30053100  0.56061475  1
  O  O2743  1  0.87485350  0.30053100  0.81061475  1
  O  O2744  1  0.87485350  0.55053100  0.06061475  1
  O  O2745  1  0.87485350  0.55053100  0.31061475  1
  O  O2746  1  0.87485350  0.55053100  0.56061475  1
  O  O2747  1  0.87485350  0.55053100  0.81061475  1
  O  O2748  1  0.87485350  0.80053100  0.06061475  1
  O  O2749  1  0.87485350  0.80053100  0.31061475  1
  O  O2750  1  0.87485350  0.80053100  0.56061475  1
  O  O2751  1  0.87485350  0.80053100  0.81061475  1
  O  O2752  1  0.24984675  0.17548875  0.18553175  1
  O  O2753  1  0.24984675  0.17548875  0.43553175  1
  O  O2754  1  0.24984675  0.17548875  0.68553175  1
  O  O2755  1  0.24984675  0.17548875  0.93553175  1
  O  O2756  1  0.24984675  0.42548875  0.18553175  1
  O  O2757  1  0.24984675  0.42548875  0.43553175  1
  O  O2758  1  0.24984675  0.42548875  0.68553175  1
  O  O2759  1  0.24984675  0.42548875  0.93553175  1
  O  O2760  1  0.24984675  0.67548875  0.18553175  1
  O  O2761  1  0.24984675  0.67548875  0.43553175  1
  O  O2762  1  0.24984675  0.67548875  0.68553175  1
  O  O2763  1  0.24984675  0.67548875  0.93553175  1
  O  O2764  1  0.24984675  0.92548875  0.18553175  1
  O  O2765  1  0.24984675  0.92548875  0.43553175  1
  O  O2766  1  0.24984675  0.92548875  0.68553175  1
  O  O2767  1  0.24984675  0.92548875  0.93553175  1
  O  O2768  1  0.49984675  0.17548875  0.18553175  1
  O  O2769  1  0.49984675  0.17548875  0.43553175  1
  O  O2770  1  0.49984675  0.17548875  0.68553175  1
  O  O2771  1  0.49984675  0.17548875  0.93553175  1
  O  O2772  1  0.49984675  0.42548875  0.18553175  1
  O  O2773  1  0.49984675  0.42548875  0.43553175  1
  O  O2774  1  0.49984675  0.42548875  0.68553175  1
  O  O2775  1  0.49984675  0.42548875  0.93553175  1
  O  O2776  1  0.49984675  0.67548875  0.18553175  1
  O  O2777  1  0.49984675  0.67548875  0.43553175  1
  O  O2778  1  0.49984675  0.67548875  0.68553175  1
  O  O2779  1  0.49984675  0.67548875  0.93553175  1
  O  O2780  1  0.49984675  0.92548875  0.18553175  1
  O  O2781  1  0.49984675  0.92548875  0.43553175  1
  O  O2782  1  0.49984675  0.92548875  0.68553175  1
  O  O2783  1  0.49984675  0.92548875  0.93553175  1
  O  O2784  1  0.74984675  0.17548875  0.18553175  1
  O  O2785  1  0.74984675  0.17548875  0.43553175  1
  O  O2786  1  0.74984675  0.17548875  0.68553175  1
  O  O2787  1  0.74984675  0.17548875  0.93553175  1
  O  O2788  1  0.74984675  0.42548875  0.18553175  1
  O  O2789  1  0.74984675  0.42548875  0.43553175  1
  O  O2790  1  0.74984675  0.42548875  0.68553175  1
  O  O2791  1  0.74984675  0.42548875  0.93553175  1
  O  O2792  1  0.74984675  0.67548875  0.18553175  1
  O  O2793  1  0.74984675  0.67548875  0.43553175  1
  O  O2794  1  0.74984675  0.67548875  0.68553175  1
  O  O2795  1  0.74984675  0.67548875  0.93553175  1
  O  O2796  1  0.74984675  0.92548875  0.18553175  1
  O  O2797  1  0.74984675  0.92548875  0.43553175  1
  O  O2798  1  0.74984675  0.92548875  0.68553175  1
  O  O2799  1  0.74984675  0.92548875  0.93553175  1
  O  O2800  1  0.99984675  0.17548875  0.18553175  1
  O  O2801  1  0.99984675  0.17548875  0.43553175  1
  O  O2802  1  0.99984675  0.17548875  0.68553175  1
  O  O2803  1  0.99984675  0.17548875  0.93553175  1
  O  O2804  1  0.99984675  0.42548875  0.18553175  1
  O  O2805  1  0.99984675  0.42548875  0.43553175  1
  O  O2806  1  0.99984675  0.42548875  0.68553175  1
  O  O2807  1  0.99984675  0.42548875  0.93553175  1
  O  O2808  1  0.99984675  0.67548875  0.18553175  1
  O  O2809  1  0.99984675  0.67548875  0.43553175  1
  O  O2810  1  0.99984675  0.67548875  0.68553175  1
  O  O2811  1  0.99984675  0.67548875  0.93553175  1
  O  O2812  1  0.99984675  0.92548875  0.18553175  1
  O  O2813  1  0.99984675  0.92548875  0.43553175  1
  O  O2814  1  0.99984675  0.92548875  0.68553175  1
  O  O2815  1  0.99984675  0.92548875  0.93553175  1
  O  O2816  1  0.00014725  0.07451075  0.06447150  1
  O  O2817  1  0.00014725  0.07451075  0.31447150  1
  O  O2818  1  0.00014725  0.07451075  0.56447150  1
  O  O2819  1  0.00014725  0.07451075  0.81447150  1
  O  O2820  1  0.00014725  0.32451075  0.06447150  1
  O  O2821  1  0.00014725  0.32451075  0.31447150  1
  O  O2822  1  0.00014725  0.32451075  0.56447150  1
  O  O2823  1  0.00014725  0.32451075  0.81447150  1
  O  O2824  1  0.00014725  0.57451075  0.06447150  1
  O  O2825  1  0.00014725  0.57451075  0.31447150  1
  O  O2826  1  0.00014725  0.57451075  0.56447150  1
  O  O2827  1  0.00014725  0.57451075  0.81447150  1
  O  O2828  1  0.00014725  0.82451075  0.06447150  1
  O  O2829  1  0.00014725  0.82451075  0.31447150  1
  O  O2830  1  0.00014725  0.82451075  0.56447150  1
  O  O2831  1  0.00014725  0.82451075  0.81447150  1
  O  O2832  1  0.25014725  0.07451075  0.06447150  1
  O  O2833  1  0.25014725  0.07451075  0.31447150  1
  O  O2834  1  0.25014725  0.07451075  0.56447150  1
  O  O2835  1  0.25014725  0.07451075  0.81447150  1
  O  O2836  1  0.25014725  0.32451075  0.06447150  1
  O  O2837  1  0.25014725  0.32451075  0.31447150  1
  O  O2838  1  0.25014725  0.32451075  0.56447150  1
  O  O2839  1  0.25014725  0.32451075  0.81447150  1
  O  O2840  1  0.25014725  0.57451075  0.06447150  1
  O  O2841  1  0.25014725  0.57451075  0.31447150  1
  O  O2842  1  0.25014725  0.57451075  0.56447150  1
  O  O2843  1  0.25014725  0.57451075  0.81447150  1
  O  O2844  1  0.25014725  0.82451075  0.06447150  1
  O  O2845  1  0.25014725  0.82451075  0.31447150  1
  O  O2846  1  0.25014725  0.82451075  0.56447150  1
  O  O2847  1  0.25014725  0.82451075  0.81447150  1
  O  O2848  1  0.50014725  0.07451075  0.06447150  1
  O  O2849  1  0.50014725  0.07451075  0.31447150  1
  O  O2850  1  0.50014725  0.07451075  0.56447150  1
  O  O2851  1  0.50014725  0.07451075  0.81447150  1
  O  O2852  1  0.50014725  0.32451075  0.06447150  1
  O  O2853  1  0.50014725  0.32451075  0.31447150  1
  O  O2854  1  0.50014725  0.32451075  0.56447150  1
  O  O2855  1  0.50014725  0.32451075  0.81447150  1
  O  O2856  1  0.50014725  0.57451075  0.06447150  1
  O  O2857  1  0.50014725  0.57451075  0.31447150  1
  O  O2858  1  0.50014725  0.57451075  0.56447150  1
  O  O2859  1  0.50014725  0.57451075  0.81447150  1
  O  O2860  1  0.50014725  0.82451075  0.06447150  1
  O  O2861  1  0.50014725  0.82451075  0.31447150  1
  O  O2862  1  0.50014725  0.82451075  0.56447150  1
  O  O2863  1  0.50014725  0.82451075  0.81447150  1
  O  O2864  1  0.75014725  0.07451075  0.06447150  1
  O  O2865  1  0.75014725  0.07451075  0.31447150  1
  O  O2866  1  0.75014725  0.07451075  0.56447150  1
  O  O2867  1  0.75014725  0.07451075  0.81447150  1
  O  O2868  1  0.75014725  0.32451075  0.06447150  1
  O  O2869  1  0.75014725  0.32451075  0.31447150  1
  O  O2870  1  0.75014725  0.32451075  0.56447150  1
  O  O2871  1  0.75014725  0.32451075  0.81447150  1
  O  O2872  1  0.75014725  0.57451075  0.06447150  1
  O  O2873  1  0.75014725  0.57451075  0.31447150  1
  O  O2874  1  0.75014725  0.57451075  0.56447150  1
  O  O2875  1  0.75014725  0.57451075  0.81447150  1
  O  O2876  1  0.75014725  0.82451075  0.06447150  1
  O  O2877  1  0.75014725  0.82451075  0.31447150  1
  O  O2878  1  0.75014725  0.82451075  0.56447150  1
  O  O2879  1  0.75014725  0.82451075  0.81447150  1
  O  O2880  1  0.12514350  0.19946950  0.18938625  1
  O  O2881  1  0.12514350  0.19946950  0.43938625  1
  O  O2882  1  0.12514350  0.19946950  0.68938625  1
  O  O2883  1  0.12514350  0.19946950  0.93938625  1
  O  O2884  1  0.12514350  0.44946950  0.18938625  1
  O  O2885  1  0.12514350  0.44946950  0.43938625  1
  O  O2886  1  0.12514350  0.44946950  0.68938625  1
  O  O2887  1  0.12514350  0.44946950  0.93938625  1
  O  O2888  1  0.12514350  0.69946950  0.18938625  1
  O  O2889  1  0.12514350  0.69946950  0.43938625  1
  O  O2890  1  0.12514350  0.69946950  0.68938625  1
  O  O2891  1  0.12514350  0.69946950  0.93938625  1
  O  O2892  1  0.12514350  0.94946950  0.18938625  1
  O  O2893  1  0.12514350  0.94946950  0.43938625  1
  O  O2894  1  0.12514350  0.94946950  0.68938625  1
  O  O2895  1  0.12514350  0.94946950  0.93938625  1
  O  O2896  1  0.37514350  0.19946950  0.18938625  1
  O  O2897  1  0.37514350  0.19946950  0.43938625  1
  O  O2898  1  0.37514350  0.19946950  0.68938625  1
  O  O2899  1  0.37514350  0.19946950  0.93938625  1
  O  O2900  1  0.37514350  0.44946950  0.18938625  1
  O  O2901  1  0.37514350  0.44946950  0.43938625  1
  O  O2902  1  0.37514350  0.44946950  0.68938625  1
  O  O2903  1  0.37514350  0.44946950  0.93938625  1
  O  O2904  1  0.37514350  0.69946950  0.18938625  1
  O  O2905  1  0.37514350  0.69946950  0.43938625  1
  O  O2906  1  0.37514350  0.69946950  0.68938625  1
  O  O2907  1  0.37514350  0.69946950  0.93938625  1
  O  O2908  1  0.37514350  0.94946950  0.18938625  1
  O  O2909  1  0.37514350  0.94946950  0.43938625  1
  O  O2910  1  0.37514350  0.94946950  0.68938625  1
  O  O2911  1  0.37514350  0.94946950  0.93938625  1
  O  O2912  1  0.62514350  0.19946950  0.18938625  1
  O  O2913  1  0.62514350  0.19946950  0.43938625  1
  O  O2914  1  0.62514350  0.19946950  0.68938625  1
  O  O2915  1  0.62514350  0.19946950  0.93938625  1
  O  O2916  1  0.62514350  0.44946950  0.18938625  1
  O  O2917  1  0.62514350  0.44946950  0.43938625  1
  O  O2918  1  0.62514350  0.44946950  0.68938625  1
  O  O2919  1  0.62514350  0.44946950  0.93938625  1
  O  O2920  1  0.62514350  0.69946950  0.18938625  1
  O  O2921  1  0.62514350  0.69946950  0.43938625  1
  O  O2922  1  0.62514350  0.69946950  0.68938625  1
  O  O2923  1  0.62514350  0.69946950  0.93938625  1
  O  O2924  1  0.62514350  0.94946950  0.18938625  1
  O  O2925  1  0.62514350  0.94946950  0.43938625  1
  O  O2926  1  0.62514350  0.94946950  0.68938625  1
  O  O2927  1  0.62514350  0.94946950  0.93938625  1
  O  O2928  1  0.87514350  0.19946950  0.18938625  1
  O  O2929  1  0.87514350  0.19946950  0.43938625  1
  O  O2930  1  0.87514350  0.19946950  0.68938625  1
  O  O2931  1  0.87514350  0.19946950  0.93938625  1
  O  O2932  1  0.87514350  0.44946950  0.18938625  1
  O  O2933  1  0.87514350  0.44946950  0.43938625  1
  O  O2934  1  0.87514350  0.44946950  0.68938625  1
  O  O2935  1  0.87514350  0.44946950  0.93938625  1
  O  O2936  1  0.87514350  0.69946950  0.18938625  1
  O  O2937  1  0.87514350  0.69946950  0.43938625  1
  O  O2938  1  0.87514350  0.69946950  0.68938625  1
  O  O2939  1  0.87514350  0.69946950  0.93938625  1
  O  O2940  1  0.87514350  0.94946950  0.18938625  1
  O  O2941  1  0.87514350  0.94946950  0.43938625  1
  O  O2942  1  0.87514350  0.94946950  0.68938625  1
  O  O2943  1  0.87514350  0.94946950  0.93938625  1
  O  O2944  1  0.04648725  0.02909200  0.22372875  1
  O  O2945  1  0.04648725  0.02909200  0.47372875  1
  O  O2946  1  0.04648725  0.02909200  0.72372875  1
  O  O2947  1  0.04648725  0.02909200  0.97372875  1
  O  O2948  1  0.04648725  0.27909200  0.22372875  1
  O  O2949  1  0.04648725  0.27909200  0.47372875  1
  O  O2950  1  0.04648725  0.27909200  0.72372875  1
  O  O2951  1  0.04648725  0.27909200  0.97372875  1
  O  O2952  1  0.04648725  0.52909200  0.22372875  1
  O  O2953  1  0.04648725  0.52909200  0.47372875  1
  O  O2954  1  0.04648725  0.52909200  0.72372875  1
  O  O2955  1  0.04648725  0.52909200  0.97372875  1
  O  O2956  1  0.04648725  0.77909200  0.22372875  1
  O  O2957  1  0.04648725  0.77909200  0.47372875  1
  O  O2958  1  0.04648725  0.77909200  0.72372875  1
  O  O2959  1  0.04648725  0.77909200  0.97372875  1
  O  O2960  1  0.29648725  0.02909200  0.22372875  1
  O  O2961  1  0.29648725  0.02909200  0.47372875  1
  O  O2962  1  0.29648725  0.02909200  0.72372875  1
  O  O2963  1  0.29648725  0.02909200  0.97372875  1
  O  O2964  1  0.29648725  0.27909200  0.22372875  1
  O  O2965  1  0.29648725  0.27909200  0.47372875  1
  O  O2966  1  0.29648725  0.27909200  0.72372875  1
  O  O2967  1  0.29648725  0.27909200  0.97372875  1
  O  O2968  1  0.29648725  0.52909200  0.22372875  1
  O  O2969  1  0.29648725  0.52909200  0.47372875  1
  O  O2970  1  0.29648725  0.52909200  0.72372875  1
  O  O2971  1  0.29648725  0.52909200  0.97372875  1
  O  O2972  1  0.29648725  0.77909200  0.22372875  1
  O  O2973  1  0.29648725  0.77909200  0.47372875  1
  O  O2974  1  0.29648725  0.77909200  0.72372875  1
  O  O2975  1  0.29648725  0.77909200  0.97372875  1
  O  O2976  1  0.54648725  0.02909200  0.22372875  1
  O  O2977  1  0.54648725  0.02909200  0.47372875  1
  O  O2978  1  0.54648725  0.02909200  0.72372875  1
  O  O2979  1  0.54648725  0.02909200  0.97372875  1
  O  O2980  1  0.54648725  0.27909200  0.22372875  1
  O  O2981  1  0.54648725  0.27909200  0.47372875  1
  O  O2982  1  0.54648725  0.27909200  0.72372875  1
  O  O2983  1  0.54648725  0.27909200  0.97372875  1
  O  O2984  1  0.54648725  0.52909200  0.22372875  1
  O  O2985  1  0.54648725  0.52909200  0.47372875  1
  O  O2986  1  0.54648725  0.52909200  0.72372875  1
  O  O2987  1  0.54648725  0.52909200  0.97372875  1
  O  O2988  1  0.54648725  0.77909200  0.22372875  1
  O  O2989  1  0.54648725  0.77909200  0.47372875  1
  O  O2990  1  0.54648725  0.77909200  0.72372875  1
  O  O2991  1  0.54648725  0.77909200  0.97372875  1
  O  O2992  1  0.79648725  0.02909200  0.22372875  1
  O  O2993  1  0.79648725  0.02909200  0.47372875  1
  O  O2994  1  0.79648725  0.02909200  0.72372875  1
  O  O2995  1  0.79648725  0.02909200  0.97372875  1
  O  O2996  1  0.79648725  0.27909200  0.22372875  1
  O  O2997  1  0.79648725  0.27909200  0.47372875  1
  O  O2998  1  0.79648725  0.27909200  0.72372875  1
  O  O2999  1  0.79648725  0.27909200  0.97372875  1
  O  O3000  1  0.79648725  0.52909200  0.22372875  1
  O  O3001  1  0.79648725  0.52909200  0.47372875  1
  O  O3002  1  0.79648725  0.52909200  0.72372875  1
  O  O3003  1  0.79648725  0.52909200  0.97372875  1
  O  O3004  1  0.79648725  0.77909200  0.22372875  1
  O  O3005  1  0.79648725  0.77909200  0.47372875  1
  O  O3006  1  0.79648725  0.77909200  0.72372875  1
  O  O3007  1  0.79648725  0.77909200  0.97372875  1
  O  O3008  1  0.17147675  0.15406650  0.09858200  1
  O  O3009  1  0.17147675  0.15406650  0.34858200  1
  O  O3010  1  0.17147675  0.15406650  0.59858200  1
  O  O3011  1  0.17147675  0.15406650  0.84858200  1
  O  O3012  1  0.17147675  0.40406650  0.09858200  1
  O  O3013  1  0.17147675  0.40406650  0.34858200  1
  O  O3014  1  0.17147675  0.40406650  0.59858200  1
  O  O3015  1  0.17147675  0.40406650  0.84858200  1
  O  O3016  1  0.17147675  0.65406650  0.09858200  1
  O  O3017  1  0.17147675  0.65406650  0.34858200  1
  O  O3018  1  0.17147675  0.65406650  0.59858200  1
  O  O3019  1  0.17147675  0.65406650  0.84858200  1
  O  O3020  1  0.17147675  0.90406650  0.09858200  1
  O  O3021  1  0.17147675  0.90406650  0.34858200  1
  O  O3022  1  0.17147675  0.90406650  0.59858200  1
  O  O3023  1  0.17147675  0.90406650  0.84858200  1
  O  O3024  1  0.42147675  0.15406650  0.09858200  1
  O  O3025  1  0.42147675  0.15406650  0.34858200  1
  O  O3026  1  0.42147675  0.15406650  0.59858200  1
  O  O3027  1  0.42147675  0.15406650  0.84858200  1
  O  O3028  1  0.42147675  0.40406650  0.09858200  1
  O  O3029  1  0.42147675  0.40406650  0.34858200  1
  O  O3030  1  0.42147675  0.40406650  0.59858200  1
  O  O3031  1  0.42147675  0.40406650  0.84858200  1
  O  O3032  1  0.42147675  0.65406650  0.09858200  1
  O  O3033  1  0.42147675  0.65406650  0.34858200  1
  O  O3034  1  0.42147675  0.65406650  0.59858200  1
  O  O3035  1  0.42147675  0.65406650  0.84858200  1
  O  O3036  1  0.42147675  0.90406650  0.09858200  1
  O  O3037  1  0.42147675  0.90406650  0.34858200  1
  O  O3038  1  0.42147675  0.90406650  0.59858200  1
  O  O3039  1  0.42147675  0.90406650  0.84858200  1
  O  O3040  1  0.67147675  0.15406650  0.09858200  1
  O  O3041  1  0.67147675  0.15406650  0.34858200  1
  O  O3042  1  0.67147675  0.15406650  0.59858200  1
  O  O3043  1  0.67147675  0.15406650  0.84858200  1
  O  O3044  1  0.67147675  0.40406650  0.09858200  1
  O  O3045  1  0.67147675  0.40406650  0.34858200  1
  O  O3046  1  0.67147675  0.40406650  0.59858200  1
  O  O3047  1  0.67147675  0.40406650  0.84858200  1
  O  O3048  1  0.67147675  0.65406650  0.09858200  1
  O  O3049  1  0.67147675  0.65406650  0.34858200  1
  O  O3050  1  0.67147675  0.65406650  0.59858200  1
  O  O3051  1  0.67147675  0.65406650  0.84858200  1
  O  O3052  1  0.67147675  0.90406650  0.09858200  1
  O  O3053  1  0.67147675  0.90406650  0.34858200  1
  O  O3054  1  0.67147675  0.90406650  0.59858200  1
  O  O3055  1  0.67147675  0.90406650  0.84858200  1
  O  O3056  1  0.92147675  0.15406650  0.09858200  1
  O  O3057  1  0.92147675  0.15406650  0.34858200  1
  O  O3058  1  0.92147675  0.15406650  0.59858200  1
  O  O3059  1  0.92147675  0.15406650  0.84858200  1
  O  O3060  1  0.92147675  0.40406650  0.09858200  1
  O  O3061  1  0.92147675  0.40406650  0.34858200  1
  O  O3062  1  0.92147675  0.40406650  0.59858200  1
  O  O3063  1  0.92147675  0.40406650  0.84858200  1
  O  O3064  1  0.92147675  0.65406650  0.09858200  1
  O  O3065  1  0.92147675  0.65406650  0.34858200  1
  O  O3066  1  0.92147675  0.65406650  0.59858200  1
  O  O3067  1  0.92147675  0.65406650  0.84858200  1
  O  O3068  1  0.92147675  0.90406650  0.09858200  1
  O  O3069  1  0.92147675  0.90406650  0.34858200  1
  O  O3070  1  0.92147675  0.90406650  0.59858200  1
  O  O3071  1  0.92147675  0.90406650  0.84858200  1
  O  O3072  1  0.07850850  0.09592700  0.15142925  1
  O  O3073  1  0.07850850  0.09592700  0.40142925  1
  O  O3074  1  0.07850850  0.09592700  0.65142925  1
  O  O3075  1  0.07850850  0.09592700  0.90142925  1
  O  O3076  1  0.07850850  0.34592700  0.15142925  1
  O  O3077  1  0.07850850  0.34592700  0.40142925  1
  O  O3078  1  0.07850850  0.34592700  0.65142925  1
  O  O3079  1  0.07850850  0.34592700  0.90142925  1
  O  O3080  1  0.07850850  0.59592700  0.15142925  1
  O  O3081  1  0.07850850  0.59592700  0.40142925  1
  O  O3082  1  0.07850850  0.59592700  0.65142925  1
  O  O3083  1  0.07850850  0.59592700  0.90142925  1
  O  O3084  1  0.07850850  0.84592700  0.15142925  1
  O  O3085  1  0.07850850  0.84592700  0.40142925  1
  O  O3086  1  0.07850850  0.84592700  0.65142925  1
  O  O3087  1  0.07850850  0.84592700  0.90142925  1
  O  O3088  1  0.32850850  0.09592700  0.15142925  1
  O  O3089  1  0.32850850  0.09592700  0.40142925  1
  O  O3090  1  0.32850850  0.09592700  0.65142925  1
  O  O3091  1  0.32850850  0.09592700  0.90142925  1
  O  O3092  1  0.32850850  0.34592700  0.15142925  1
  O  O3093  1  0.32850850  0.34592700  0.40142925  1
  O  O3094  1  0.32850850  0.34592700  0.65142925  1
  O  O3095  1  0.32850850  0.34592700  0.90142925  1
  O  O3096  1  0.32850850  0.59592700  0.15142925  1
  O  O3097  1  0.32850850  0.59592700  0.40142925  1
  O  O3098  1  0.32850850  0.59592700  0.65142925  1
  O  O3099  1  0.32850850  0.59592700  0.90142925  1
  O  O3100  1  0.32850850  0.84592700  0.15142925  1
  O  O3101  1  0.32850850  0.84592700  0.40142925  1
  O  O3102  1  0.32850850  0.84592700  0.65142925  1
  O  O3103  1  0.32850850  0.84592700  0.90142925  1
  O  O3104  1  0.57850850  0.09592700  0.15142925  1
  O  O3105  1  0.57850850  0.09592700  0.40142925  1
  O  O3106  1  0.57850850  0.09592700  0.65142925  1
  O  O3107  1  0.57850850  0.09592700  0.90142925  1
  O  O3108  1  0.57850850  0.34592700  0.15142925  1
  O  O3109  1  0.57850850  0.34592700  0.40142925  1
  O  O3110  1  0.57850850  0.34592700  0.65142925  1
  O  O3111  1  0.57850850  0.34592700  0.90142925  1
  O  O3112  1  0.57850850  0.59592700  0.15142925  1
  O  O3113  1  0.57850850  0.59592700  0.40142925  1
  O  O3114  1  0.57850850  0.59592700  0.65142925  1
  O  O3115  1  0.57850850  0.59592700  0.90142925  1
  O  O3116  1  0.57850850  0.84592700  0.15142925  1
  O  O3117  1  0.57850850  0.84592700  0.40142925  1
  O  O3118  1  0.57850850  0.84592700  0.65142925  1
  O  O3119  1  0.57850850  0.84592700  0.90142925  1
  O  O3120  1  0.82850850  0.09592700  0.15142925  1
  O  O3121  1  0.82850850  0.09592700  0.40142925  1
  O  O3122  1  0.82850850  0.09592700  0.65142925  1
  O  O3123  1  0.82850850  0.09592700  0.90142925  1
  O  O3124  1  0.82850850  0.34592700  0.15142925  1
  O  O3125  1  0.82850850  0.34592700  0.40142925  1
  O  O3126  1  0.82850850  0.34592700  0.65142925  1
  O  O3127  1  0.82850850  0.34592700  0.90142925  1
  O  O3128  1  0.82850850  0.59592700  0.15142925  1
  O  O3129  1  0.82850850  0.59592700  0.40142925  1
  O  O3130  1  0.82850850  0.59592700  0.65142925  1
  O  O3131  1  0.82850850  0.59592700  0.90142925  1
  O  O3132  1  0.82850850  0.84592700  0.15142925  1
  O  O3133  1  0.82850850  0.84592700  0.40142925  1
  O  O3134  1  0.82850850  0.84592700  0.65142925  1
  O  O3135  1  0.82850850  0.84592700  0.90142925  1
  O  O3136  1  0.20353450  0.22091075  0.02626775  1
  O  O3137  1  0.20353450  0.22091075  0.27626775  1
  O  O3138  1  0.20353450  0.22091075  0.52626775  1
  O  O3139  1  0.20353450  0.22091075  0.77626775  1
  O  O3140  1  0.20353450  0.47091075  0.02626775  1
  O  O3141  1  0.20353450  0.47091075  0.27626775  1
  O  O3142  1  0.20353450  0.47091075  0.52626775  1
  O  O3143  1  0.20353450  0.47091075  0.77626775  1
  O  O3144  1  0.20353450  0.72091075  0.02626775  1
  O  O3145  1  0.20353450  0.72091075  0.27626775  1
  O  O3146  1  0.20353450  0.72091075  0.52626775  1
  O  O3147  1  0.20353450  0.72091075  0.77626775  1
  O  O3148  1  0.20353450  0.97091075  0.02626775  1
  O  O3149  1  0.20353450  0.97091075  0.27626775  1
  O  O3150  1  0.20353450  0.97091075  0.52626775  1
  O  O3151  1  0.20353450  0.97091075  0.77626775  1
  O  O3152  1  0.45353450  0.22091075  0.02626775  1
  O  O3153  1  0.45353450  0.22091075  0.27626775  1
  O  O3154  1  0.45353450  0.22091075  0.52626775  1
  O  O3155  1  0.45353450  0.22091075  0.77626775  1
  O  O3156  1  0.45353450  0.47091075  0.02626775  1
  O  O3157  1  0.45353450  0.47091075  0.27626775  1
  O  O3158  1  0.45353450  0.47091075  0.52626775  1
  O  O3159  1  0.45353450  0.47091075  0.77626775  1
  O  O3160  1  0.45353450  0.72091075  0.02626775  1
  O  O3161  1  0.45353450  0.72091075  0.27626775  1
  O  O3162  1  0.45353450  0.72091075  0.52626775  1
  O  O3163  1  0.45353450  0.72091075  0.77626775  1
  O  O3164  1  0.45353450  0.97091075  0.02626775  1
  O  O3165  1  0.45353450  0.97091075  0.27626775  1
  O  O3166  1  0.45353450  0.97091075  0.52626775  1
  O  O3167  1  0.45353450  0.97091075  0.77626775  1
  O  O3168  1  0.70353450  0.22091075  0.02626775  1
  O  O3169  1  0.70353450  0.22091075  0.27626775  1
  O  O3170  1  0.70353450  0.22091075  0.52626775  1
  O  O3171  1  0.70353450  0.22091075  0.77626775  1
  O  O3172  1  0.70353450  0.47091075  0.02626775  1
  O  O3173  1  0.70353450  0.47091075  0.27626775  1
  O  O3174  1  0.70353450  0.47091075  0.52626775  1
  O  O3175  1  0.70353450  0.47091075  0.77626775  1
  O  O3176  1  0.70353450  0.72091075  0.02626775  1
  O  O3177  1  0.70353450  0.72091075  0.27626775  1
  O  O3178  1  0.70353450  0.72091075  0.52626775  1
  O  O3179  1  0.70353450  0.72091075  0.77626775  1
  O  O3180  1  0.70353450  0.97091075  0.02626775  1
  O  O3181  1  0.70353450  0.97091075  0.27626775  1
  O  O3182  1  0.70353450  0.97091075  0.52626775  1
  O  O3183  1  0.70353450  0.97091075  0.77626775  1
  O  O3184  1  0.95353450  0.22091075  0.02626775  1
  O  O3185  1  0.95353450  0.22091075  0.27626775  1
  O  O3186  1  0.95353450  0.22091075  0.52626775  1
  O  O3187  1  0.95353450  0.22091075  0.77626775  1
  O  O3188  1  0.95353450  0.47091075  0.02626775  1
  O  O3189  1  0.95353450  0.47091075  0.27626775  1
  O  O3190  1  0.95353450  0.47091075  0.52626775  1
  O  O3191  1  0.95353450  0.47091075  0.77626775  1
  O  O3192  1  0.95353450  0.72091075  0.02626775  1
  O  O3193  1  0.95353450  0.72091075  0.27626775  1
  O  O3194  1  0.95353450  0.72091075  0.52626775  1
  O  O3195  1  0.95353450  0.72091075  0.77626775  1
  O  O3196  1  0.95353450  0.97091075  0.02626775  1
  O  O3197  1  0.95353450  0.97091075  0.27626775  1
  O  O3198  1  0.95353450  0.97091075  0.52626775  1
  O  O3199  1  0.95353450  0.97091075  0.77626775  1
