# generated using pymatgen
data_Rb2Li2SiO4
_symmetry_space_group_name_H-M   'P 1'
_cell_length_a   33.12114600
_cell_length_b   34.22842466
_cell_length_c   53.10033708
_cell_angle_alpha   83.68469101
_cell_angle_beta   75.39356392
_cell_angle_gamma   85.70638505
_symmetry_Int_Tables_number   1
_chemical_formula_structural   Rb2Li2SiO4
_chemical_formula_sum   'Rb864 Li864 Si432 O1728'
_cell_volume   57830.40108572
_cell_formula_units_Z   432
loop_
 _symmetry_equiv_pos_site_id
 _symmetry_equiv_pos_as_xyz
  1  'x, y, z'
loop_
 _atom_site_type_symbol
 _atom_site_label
 _atom_site_symmetry_multiplicity
 _atom_site_fract_x
 _atom_site_fract_y
 _atom_site_fract_z
 _atom_site_occupancy
  Rb  Rb0  1  0.07945817  0.14175667  0.12188250  1
  Rb  Rb1  1  0.07945817  0.14175667  0.28854917  1
  Rb  Rb2  1  0.07945817  0.14175667  0.45521583  1
  Rb  Rb3  1  0.07945817  0.14175667  0.62188250  1
  Rb  Rb4  1  0.07945817  0.14175667  0.78854917  1
  Rb  Rb5  1  0.07945817  0.14175667  0.95521583  1
  Rb  Rb6  1  0.07945817  0.30842333  0.12188250  1
  Rb  Rb7  1  0.07945817  0.30842333  0.28854917  1
  Rb  Rb8  1  0.07945817  0.30842333  0.45521583  1
  Rb  Rb9  1  0.07945817  0.30842333  0.62188250  1
  Rb  Rb10  1  0.07945817  0.30842333  0.78854917  1
  Rb  Rb11  1  0.07945817  0.30842333  0.95521583  1
  Rb  Rb12  1  0.07945817  0.47509000  0.12188250  1
  Rb  Rb13  1  0.07945817  0.47509000  0.28854917  1
  Rb  Rb14  1  0.07945817  0.47509000  0.45521583  1
  Rb  Rb15  1  0.07945817  0.47509000  0.62188250  1
  Rb  Rb16  1  0.07945817  0.47509000  0.78854917  1
  Rb  Rb17  1  0.07945817  0.47509000  0.95521583  1
  Rb  Rb18  1  0.07945817  0.64175667  0.12188250  1
  Rb  Rb19  1  0.07945817  0.64175667  0.28854917  1
  Rb  Rb20  1  0.07945817  0.64175667  0.45521583  1
  Rb  Rb21  1  0.07945817  0.64175667  0.62188250  1
  Rb  Rb22  1  0.07945817  0.64175667  0.78854917  1
  Rb  Rb23  1  0.07945817  0.64175667  0.95521583  1
  Rb  Rb24  1  0.07945817  0.80842333  0.12188250  1
  Rb  Rb25  1  0.07945817  0.80842333  0.28854917  1
  Rb  Rb26  1  0.07945817  0.80842333  0.45521583  1
  Rb  Rb27  1  0.07945817  0.80842333  0.62188250  1
  Rb  Rb28  1  0.07945817  0.80842333  0.78854917  1
  Rb  Rb29  1  0.07945817  0.80842333  0.95521583  1
  Rb  Rb30  1  0.07945817  0.97509000  0.12188250  1
  Rb  Rb31  1  0.07945817  0.97509000  0.28854917  1
  Rb  Rb32  1  0.07945817  0.97509000  0.45521583  1
  Rb  Rb33  1  0.07945817  0.97509000  0.62188250  1
  Rb  Rb34  1  0.07945817  0.97509000  0.78854917  1
  Rb  Rb35  1  0.07945817  0.97509000  0.95521583  1
  Rb  Rb36  1  0.24612483  0.14175667  0.12188250  1
  Rb  Rb37  1  0.24612483  0.14175667  0.28854917  1
  Rb  Rb38  1  0.24612483  0.14175667  0.45521583  1
  Rb  Rb39  1  0.24612483  0.14175667  0.62188250  1
  Rb  Rb40  1  0.24612483  0.14175667  0.78854917  1
  Rb  Rb41  1  0.24612483  0.14175667  0.95521583  1
  Rb  Rb42  1  0.24612483  0.30842333  0.12188250  1
  Rb  Rb43  1  0.24612483  0.30842333  0.28854917  1
  Rb  Rb44  1  0.24612483  0.30842333  0.45521583  1
  Rb  Rb45  1  0.24612483  0.30842333  0.62188250  1
  Rb  Rb46  1  0.24612483  0.30842333  0.78854917  1
  Rb  Rb47  1  0.24612483  0.30842333  0.95521583  1
  Rb  Rb48  1  0.24612483  0.47509000  0.12188250  1
  Rb  Rb49  1  0.24612483  0.47509000  0.28854917  1
  Rb  Rb50  1  0.24612483  0.47509000  0.45521583  1
  Rb  Rb51  1  0.24612483  0.47509000  0.62188250  1
  Rb  Rb52  1  0.24612483  0.47509000  0.78854917  1
  Rb  Rb53  1  0.24612483  0.47509000  0.95521583  1
  Rb  Rb54  1  0.24612483  0.64175667  0.12188250  1
  Rb  Rb55  1  0.24612483  0.64175667  0.28854917  1
  Rb  Rb56  1  0.24612483  0.64175667  0.45521583  1
  Rb  Rb57  1  0.24612483  0.64175667  0.62188250  1
  Rb  Rb58  1  0.24612483  0.64175667  0.78854917  1
  Rb  Rb59  1  0.24612483  0.64175667  0.95521583  1
  Rb  Rb60  1  0.24612483  0.80842333  0.12188250  1
  Rb  Rb61  1  0.24612483  0.80842333  0.28854917  1
  Rb  Rb62  1  0.24612483  0.80842333  0.45521583  1
  Rb  Rb63  1  0.24612483  0.80842333  0.62188250  1
  Rb  Rb64  1  0.24612483  0.80842333  0.78854917  1
  Rb  Rb65  1  0.24612483  0.80842333  0.95521583  1
  Rb  Rb66  1  0.24612483  0.97509000  0.12188250  1
  Rb  Rb67  1  0.24612483  0.97509000  0.28854917  1
  Rb  Rb68  1  0.24612483  0.97509000  0.45521583  1
  Rb  Rb69  1  0.24612483  0.97509000  0.62188250  1
  Rb  Rb70  1  0.24612483  0.97509000  0.78854917  1
  Rb  Rb71  1  0.24612483  0.97509000  0.95521583  1
  Rb  Rb72  1  0.41279150  0.14175667  0.12188250  1
  Rb  Rb73  1  0.41279150  0.14175667  0.28854917  1
  Rb  Rb74  1  0.41279150  0.14175667  0.45521583  1
  Rb  Rb75  1  0.41279150  0.14175667  0.62188250  1
  Rb  Rb76  1  0.41279150  0.14175667  0.78854917  1
  Rb  Rb77  1  0.41279150  0.14175667  0.95521583  1
  Rb  Rb78  1  0.41279150  0.30842333  0.12188250  1
  Rb  Rb79  1  0.41279150  0.30842333  0.28854917  1
  Rb  Rb80  1  0.41279150  0.30842333  0.45521583  1
  Rb  Rb81  1  0.41279150  0.30842333  0.62188250  1
  Rb  Rb82  1  0.41279150  0.30842333  0.78854917  1
  Rb  Rb83  1  0.41279150  0.30842333  0.95521583  1
  Rb  Rb84  1  0.41279150  0.47509000  0.12188250  1
  Rb  Rb85  1  0.41279150  0.47509000  0.28854917  1
  Rb  Rb86  1  0.41279150  0.47509000  0.45521583  1
  Rb  Rb87  1  0.41279150  0.47509000  0.62188250  1
  Rb  Rb88  1  0.41279150  0.47509000  0.78854917  1
  Rb  Rb89  1  0.41279150  0.47509000  0.95521583  1
  Rb  Rb90  1  0.41279150  0.64175667  0.12188250  1
  Rb  Rb91  1  0.41279150  0.64175667  0.28854917  1
  Rb  Rb92  1  0.41279150  0.64175667  0.45521583  1
  Rb  Rb93  1  0.41279150  0.64175667  0.62188250  1
  Rb  Rb94  1  0.41279150  0.64175667  0.78854917  1
  Rb  Rb95  1  0.41279150  0.64175667  0.95521583  1
  Rb  Rb96  1  0.41279150  0.80842333  0.12188250  1
  Rb  Rb97  1  0.41279150  0.80842333  0.28854917  1
  Rb  Rb98  1  0.41279150  0.80842333  0.45521583  1
  Rb  Rb99  1  0.41279150  0.80842333  0.62188250  1
  Rb  Rb100  1  0.41279150  0.80842333  0.78854917  1
  Rb  Rb101  1  0.41279150  0.80842333  0.95521583  1
  Rb  Rb102  1  0.41279150  0.97509000  0.12188250  1
  Rb  Rb103  1  0.41279150  0.97509000  0.28854917  1
  Rb  Rb104  1  0.41279150  0.97509000  0.45521583  1
  Rb  Rb105  1  0.41279150  0.97509000  0.62188250  1
  Rb  Rb106  1  0.41279150  0.97509000  0.78854917  1
  Rb  Rb107  1  0.41279150  0.97509000  0.95521583  1
  Rb  Rb108  1  0.57945817  0.14175667  0.12188250  1
  Rb  Rb109  1  0.57945817  0.14175667  0.28854917  1
  Rb  Rb110  1  0.57945817  0.14175667  0.45521583  1
  Rb  Rb111  1  0.57945817  0.14175667  0.62188250  1
  Rb  Rb112  1  0.57945817  0.14175667  0.78854917  1
  Rb  Rb113  1  0.57945817  0.14175667  0.95521583  1
  Rb  Rb114  1  0.57945817  0.30842333  0.12188250  1
  Rb  Rb115  1  0.57945817  0.30842333  0.28854917  1
  Rb  Rb116  1  0.57945817  0.30842333  0.45521583  1
  Rb  Rb117  1  0.57945817  0.30842333  0.62188250  1
  Rb  Rb118  1  0.57945817  0.30842333  0.78854917  1
  Rb  Rb119  1  0.57945817  0.30842333  0.95521583  1
  Rb  Rb120  1  0.57945817  0.47509000  0.12188250  1
  Rb  Rb121  1  0.57945817  0.47509000  0.28854917  1
  Rb  Rb122  1  0.57945817  0.47509000  0.45521583  1
  Rb  Rb123  1  0.57945817  0.47509000  0.62188250  1
  Rb  Rb124  1  0.57945817  0.47509000  0.78854917  1
  Rb  Rb125  1  0.57945817  0.47509000  0.95521583  1
  Rb  Rb126  1  0.57945817  0.64175667  0.12188250  1
  Rb  Rb127  1  0.57945817  0.64175667  0.28854917  1
  Rb  Rb128  1  0.57945817  0.64175667  0.45521583  1
  Rb  Rb129  1  0.57945817  0.64175667  0.62188250  1
  Rb  Rb130  1  0.57945817  0.64175667  0.78854917  1
  Rb  Rb131  1  0.57945817  0.64175667  0.95521583  1
  Rb  Rb132  1  0.57945817  0.80842333  0.12188250  1
  Rb  Rb133  1  0.57945817  0.80842333  0.28854917  1
  Rb  Rb134  1  0.57945817  0.80842333  0.45521583  1
  Rb  Rb135  1  0.57945817  0.80842333  0.62188250  1
  Rb  Rb136  1  0.57945817  0.80842333  0.78854917  1
  Rb  Rb137  1  0.57945817  0.80842333  0.95521583  1
  Rb  Rb138  1  0.57945817  0.97509000  0.12188250  1
  Rb  Rb139  1  0.57945817  0.97509000  0.28854917  1
  Rb  Rb140  1  0.57945817  0.97509000  0.45521583  1
  Rb  Rb141  1  0.57945817  0.97509000  0.62188250  1
  Rb  Rb142  1  0.57945817  0.97509000  0.78854917  1
  Rb  Rb143  1  0.57945817  0.97509000  0.95521583  1
  Rb  Rb144  1  0.74612483  0.14175667  0.12188250  1
  Rb  Rb145  1  0.74612483  0.14175667  0.28854917  1
  Rb  Rb146  1  0.74612483  0.14175667  0.45521583  1
  Rb  Rb147  1  0.74612483  0.14175667  0.62188250  1
  Rb  Rb148  1  0.74612483  0.14175667  0.78854917  1
  Rb  Rb149  1  0.74612483  0.14175667  0.95521583  1
  Rb  Rb150  1  0.74612483  0.30842333  0.12188250  1
  Rb  Rb151  1  0.74612483  0.30842333  0.28854917  1
  Rb  Rb152  1  0.74612483  0.30842333  0.45521583  1
  Rb  Rb153  1  0.74612483  0.30842333  0.62188250  1
  Rb  Rb154  1  0.74612483  0.30842333  0.78854917  1
  Rb  Rb155  1  0.74612483  0.30842333  0.95521583  1
  Rb  Rb156  1  0.74612483  0.47509000  0.12188250  1
  Rb  Rb157  1  0.74612483  0.47509000  0.28854917  1
  Rb  Rb158  1  0.74612483  0.47509000  0.45521583  1
  Rb  Rb159  1  0.74612483  0.47509000  0.62188250  1
  Rb  Rb160  1  0.74612483  0.47509000  0.78854917  1
  Rb  Rb161  1  0.74612483  0.47509000  0.95521583  1
  Rb  Rb162  1  0.74612483  0.64175667  0.12188250  1
  Rb  Rb163  1  0.74612483  0.64175667  0.28854917  1
  Rb  Rb164  1  0.74612483  0.64175667  0.45521583  1
  Rb  Rb165  1  0.74612483  0.64175667  0.62188250  1
  Rb  Rb166  1  0.74612483  0.64175667  0.78854917  1
  Rb  Rb167  1  0.74612483  0.64175667  0.95521583  1
  Rb  Rb168  1  0.74612483  0.80842333  0.12188250  1
  Rb  Rb169  1  0.74612483  0.80842333  0.28854917  1
  Rb  Rb170  1  0.74612483  0.80842333  0.45521583  1
  Rb  Rb171  1  0.74612483  0.80842333  0.62188250  1
  Rb  Rb172  1  0.74612483  0.80842333  0.78854917  1
  Rb  Rb173  1  0.74612483  0.80842333  0.95521583  1
  Rb  Rb174  1  0.74612483  0.97509000  0.12188250  1
  Rb  Rb175  1  0.74612483  0.97509000  0.28854917  1
  Rb  Rb176  1  0.74612483  0.97509000  0.45521583  1
  Rb  Rb177  1  0.74612483  0.97509000  0.62188250  1
  Rb  Rb178  1  0.74612483  0.97509000  0.78854917  1
  Rb  Rb179  1  0.74612483  0.97509000  0.95521583  1
  Rb  Rb180  1  0.91279150  0.14175667  0.12188250  1
  Rb  Rb181  1  0.91279150  0.14175667  0.28854917  1
  Rb  Rb182  1  0.91279150  0.14175667  0.45521583  1
  Rb  Rb183  1  0.91279150  0.14175667  0.62188250  1
  Rb  Rb184  1  0.91279150  0.14175667  0.78854917  1
  Rb  Rb185  1  0.91279150  0.14175667  0.95521583  1
  Rb  Rb186  1  0.91279150  0.30842333  0.12188250  1
  Rb  Rb187  1  0.91279150  0.30842333  0.28854917  1
  Rb  Rb188  1  0.91279150  0.30842333  0.45521583  1
  Rb  Rb189  1  0.91279150  0.30842333  0.62188250  1
  Rb  Rb190  1  0.91279150  0.30842333  0.78854917  1
  Rb  Rb191  1  0.91279150  0.30842333  0.95521583  1
  Rb  Rb192  1  0.91279150  0.47509000  0.12188250  1
  Rb  Rb193  1  0.91279150  0.47509000  0.28854917  1
  Rb  Rb194  1  0.91279150  0.47509000  0.45521583  1
  Rb  Rb195  1  0.91279150  0.47509000  0.62188250  1
  Rb  Rb196  1  0.91279150  0.47509000  0.78854917  1
  Rb  Rb197  1  0.91279150  0.47509000  0.95521583  1
  Rb  Rb198  1  0.91279150  0.64175667  0.12188250  1
  Rb  Rb199  1  0.91279150  0.64175667  0.28854917  1
  Rb  Rb200  1  0.91279150  0.64175667  0.45521583  1
  Rb  Rb201  1  0.91279150  0.64175667  0.62188250  1
  Rb  Rb202  1  0.91279150  0.64175667  0.78854917  1
  Rb  Rb203  1  0.91279150  0.64175667  0.95521583  1
  Rb  Rb204  1  0.91279150  0.80842333  0.12188250  1
  Rb  Rb205  1  0.91279150  0.80842333  0.28854917  1
  Rb  Rb206  1  0.91279150  0.80842333  0.45521583  1
  Rb  Rb207  1  0.91279150  0.80842333  0.62188250  1
  Rb  Rb208  1  0.91279150  0.80842333  0.78854917  1
  Rb  Rb209  1  0.91279150  0.80842333  0.95521583  1
  Rb  Rb210  1  0.91279150  0.97509000  0.12188250  1
  Rb  Rb211  1  0.91279150  0.97509000  0.28854917  1
  Rb  Rb212  1  0.91279150  0.97509000  0.45521583  1
  Rb  Rb213  1  0.91279150  0.97509000  0.62188250  1
  Rb  Rb214  1  0.91279150  0.97509000  0.78854917  1
  Rb  Rb215  1  0.91279150  0.97509000  0.95521583  1
  Rb  Rb216  1  0.08720850  0.02491000  0.04478417  1
  Rb  Rb217  1  0.08720850  0.02491000  0.21145083  1
  Rb  Rb218  1  0.08720850  0.02491000  0.37811750  1
  Rb  Rb219  1  0.08720850  0.02491000  0.54478417  1
  Rb  Rb220  1  0.08720850  0.02491000  0.71145083  1
  Rb  Rb221  1  0.08720850  0.02491000  0.87811750  1
  Rb  Rb222  1  0.08720850  0.19157667  0.04478417  1
  Rb  Rb223  1  0.08720850  0.19157667  0.21145083  1
  Rb  Rb224  1  0.08720850  0.19157667  0.37811750  1
  Rb  Rb225  1  0.08720850  0.19157667  0.54478417  1
  Rb  Rb226  1  0.08720850  0.19157667  0.71145083  1
  Rb  Rb227  1  0.08720850  0.19157667  0.87811750  1
  Rb  Rb228  1  0.08720850  0.35824333  0.04478417  1
  Rb  Rb229  1  0.08720850  0.35824333  0.21145083  1
  Rb  Rb230  1  0.08720850  0.35824333  0.37811750  1
  Rb  Rb231  1  0.08720850  0.35824333  0.54478417  1
  Rb  Rb232  1  0.08720850  0.35824333  0.71145083  1
  Rb  Rb233  1  0.08720850  0.35824333  0.87811750  1
  Rb  Rb234  1  0.08720850  0.52491000  0.04478417  1
  Rb  Rb235  1  0.08720850  0.52491000  0.21145083  1
  Rb  Rb236  1  0.08720850  0.52491000  0.37811750  1
  Rb  Rb237  1  0.08720850  0.52491000  0.54478417  1
  Rb  Rb238  1  0.08720850  0.52491000  0.71145083  1
  Rb  Rb239  1  0.08720850  0.52491000  0.87811750  1
  Rb  Rb240  1  0.08720850  0.69157667  0.04478417  1
  Rb  Rb241  1  0.08720850  0.69157667  0.21145083  1
  Rb  Rb242  1  0.08720850  0.69157667  0.37811750  1
  Rb  Rb243  1  0.08720850  0.69157667  0.54478417  1
  Rb  Rb244  1  0.08720850  0.69157667  0.71145083  1
  Rb  Rb245  1  0.08720850  0.69157667  0.87811750  1
  Rb  Rb246  1  0.08720850  0.85824333  0.04478417  1
  Rb  Rb247  1  0.08720850  0.85824333  0.21145083  1
  Rb  Rb248  1  0.08720850  0.85824333  0.37811750  1
  Rb  Rb249  1  0.08720850  0.85824333  0.54478417  1
  Rb  Rb250  1  0.08720850  0.85824333  0.71145083  1
  Rb  Rb251  1  0.08720850  0.85824333  0.87811750  1
  Rb  Rb252  1  0.25387517  0.02491000  0.04478417  1
  Rb  Rb253  1  0.25387517  0.02491000  0.21145083  1
  Rb  Rb254  1  0.25387517  0.02491000  0.37811750  1
  Rb  Rb255  1  0.25387517  0.02491000  0.54478417  1
  Rb  Rb256  1  0.25387517  0.02491000  0.71145083  1
  Rb  Rb257  1  0.25387517  0.02491000  0.87811750  1
  Rb  Rb258  1  0.25387517  0.19157667  0.04478417  1
  Rb  Rb259  1  0.25387517  0.19157667  0.21145083  1
  Rb  Rb260  1  0.25387517  0.19157667  0.37811750  1
  Rb  Rb261  1  0.25387517  0.19157667  0.54478417  1
  Rb  Rb262  1  0.25387517  0.19157667  0.71145083  1
  Rb  Rb263  1  0.25387517  0.19157667  0.87811750  1
  Rb  Rb264  1  0.25387517  0.35824333  0.04478417  1
  Rb  Rb265  1  0.25387517  0.35824333  0.21145083  1
  Rb  Rb266  1  0.25387517  0.35824333  0.37811750  1
  Rb  Rb267  1  0.25387517  0.35824333  0.54478417  1
  Rb  Rb268  1  0.25387517  0.35824333  0.71145083  1
  Rb  Rb269  1  0.25387517  0.35824333  0.87811750  1
  Rb  Rb270  1  0.25387517  0.52491000  0.04478417  1
  Rb  Rb271  1  0.25387517  0.52491000  0.21145083  1
  Rb  Rb272  1  0.25387517  0.52491000  0.37811750  1
  Rb  Rb273  1  0.25387517  0.52491000  0.54478417  1
  Rb  Rb274  1  0.25387517  0.52491000  0.71145083  1
  Rb  Rb275  1  0.25387517  0.52491000  0.87811750  1
  Rb  Rb276  1  0.25387517  0.69157667  0.04478417  1
  Rb  Rb277  1  0.25387517  0.69157667  0.21145083  1
  Rb  Rb278  1  0.25387517  0.69157667  0.37811750  1
  Rb  Rb279  1  0.25387517  0.69157667  0.54478417  1
  Rb  Rb280  1  0.25387517  0.69157667  0.71145083  1
  Rb  Rb281  1  0.25387517  0.69157667  0.87811750  1
  Rb  Rb282  1  0.25387517  0.85824333  0.04478417  1
  Rb  Rb283  1  0.25387517  0.85824333  0.21145083  1
  Rb  Rb284  1  0.25387517  0.85824333  0.37811750  1
  Rb  Rb285  1  0.25387517  0.85824333  0.54478417  1
  Rb  Rb286  1  0.25387517  0.85824333  0.71145083  1
  Rb  Rb287  1  0.25387517  0.85824333  0.87811750  1
  Rb  Rb288  1  0.42054183  0.02491000  0.04478417  1
  Rb  Rb289  1  0.42054183  0.02491000  0.21145083  1
  Rb  Rb290  1  0.42054183  0.02491000  0.37811750  1
  Rb  Rb291  1  0.42054183  0.02491000  0.54478417  1
  Rb  Rb292  1  0.42054183  0.02491000  0.71145083  1
  Rb  Rb293  1  0.42054183  0.02491000  0.87811750  1
  Rb  Rb294  1  0.42054183  0.19157667  0.04478417  1
  Rb  Rb295  1  0.42054183  0.19157667  0.21145083  1
  Rb  Rb296  1  0.42054183  0.19157667  0.37811750  1
  Rb  Rb297  1  0.42054183  0.19157667  0.54478417  1
  Rb  Rb298  1  0.42054183  0.19157667  0.71145083  1
  Rb  Rb299  1  0.42054183  0.19157667  0.87811750  1
  Rb  Rb300  1  0.42054183  0.35824333  0.04478417  1
  Rb  Rb301  1  0.42054183  0.35824333  0.21145083  1
  Rb  Rb302  1  0.42054183  0.35824333  0.37811750  1
  Rb  Rb303  1  0.42054183  0.35824333  0.54478417  1
  Rb  Rb304  1  0.42054183  0.35824333  0.71145083  1
  Rb  Rb305  1  0.42054183  0.35824333  0.87811750  1
  Rb  Rb306  1  0.42054183  0.52491000  0.04478417  1
  Rb  Rb307  1  0.42054183  0.52491000  0.21145083  1
  Rb  Rb308  1  0.42054183  0.52491000  0.37811750  1
  Rb  Rb309  1  0.42054183  0.52491000  0.54478417  1
  Rb  Rb310  1  0.42054183  0.52491000  0.71145083  1
  Rb  Rb311  1  0.42054183  0.52491000  0.87811750  1
  Rb  Rb312  1  0.42054183  0.69157667  0.04478417  1
  Rb  Rb313  1  0.42054183  0.69157667  0.21145083  1
  Rb  Rb314  1  0.42054183  0.69157667  0.37811750  1
  Rb  Rb315  1  0.42054183  0.69157667  0.54478417  1
  Rb  Rb316  1  0.42054183  0.69157667  0.71145083  1
  Rb  Rb317  1  0.42054183  0.69157667  0.87811750  1
  Rb  Rb318  1  0.42054183  0.85824333  0.04478417  1
  Rb  Rb319  1  0.42054183  0.85824333  0.21145083  1
  Rb  Rb320  1  0.42054183  0.85824333  0.37811750  1
  Rb  Rb321  1  0.42054183  0.85824333  0.54478417  1
  Rb  Rb322  1  0.42054183  0.85824333  0.71145083  1
  Rb  Rb323  1  0.42054183  0.85824333  0.87811750  1
  Rb  Rb324  1  0.58720850  0.02491000  0.04478417  1
  Rb  Rb325  1  0.58720850  0.02491000  0.21145083  1
  Rb  Rb326  1  0.58720850  0.02491000  0.37811750  1
  Rb  Rb327  1  0.58720850  0.02491000  0.54478417  1
  Rb  Rb328  1  0.58720850  0.02491000  0.71145083  1
  Rb  Rb329  1  0.58720850  0.02491000  0.87811750  1
  Rb  Rb330  1  0.58720850  0.19157667  0.04478417  1
  Rb  Rb331  1  0.58720850  0.19157667  0.21145083  1
  Rb  Rb332  1  0.58720850  0.19157667  0.37811750  1
  Rb  Rb333  1  0.58720850  0.19157667  0.54478417  1
  Rb  Rb334  1  0.58720850  0.19157667  0.71145083  1
  Rb  Rb335  1  0.58720850  0.19157667  0.87811750  1
  Rb  Rb336  1  0.58720850  0.35824333  0.04478417  1
  Rb  Rb337  1  0.58720850  0.35824333  0.21145083  1
  Rb  Rb338  1  0.58720850  0.35824333  0.37811750  1
  Rb  Rb339  1  0.58720850  0.35824333  0.54478417  1
  Rb  Rb340  1  0.58720850  0.35824333  0.71145083  1
  Rb  Rb341  1  0.58720850  0.35824333  0.87811750  1
  Rb  Rb342  1  0.58720850  0.52491000  0.04478417  1
  Rb  Rb343  1  0.58720850  0.52491000  0.21145083  1
  Rb  Rb344  1  0.58720850  0.52491000  0.37811750  1
  Rb  Rb345  1  0.58720850  0.52491000  0.54478417  1
  Rb  Rb346  1  0.58720850  0.52491000  0.71145083  1
  Rb  Rb347  1  0.58720850  0.52491000  0.87811750  1
  Rb  Rb348  1  0.58720850  0.69157667  0.04478417  1
  Rb  Rb349  1  0.58720850  0.69157667  0.21145083  1
  Rb  Rb350  1  0.58720850  0.69157667  0.37811750  1
  Rb  Rb351  1  0.58720850  0.69157667  0.54478417  1
  Rb  Rb352  1  0.58720850  0.69157667  0.71145083  1
  Rb  Rb353  1  0.58720850  0.69157667  0.87811750  1
  Rb  Rb354  1  0.58720850  0.85824333  0.04478417  1
  Rb  Rb355  1  0.58720850  0.85824333  0.21145083  1
  Rb  Rb356  1  0.58720850  0.85824333  0.37811750  1
  Rb  Rb357  1  0.58720850  0.85824333  0.54478417  1
  Rb  Rb358  1  0.58720850  0.85824333  0.71145083  1
  Rb  Rb359  1  0.58720850  0.85824333  0.87811750  1
  Rb  Rb360  1  0.75387517  0.02491000  0.04478417  1
  Rb  Rb361  1  0.75387517  0.02491000  0.21145083  1
  Rb  Rb362  1  0.75387517  0.02491000  0.37811750  1
  Rb  Rb363  1  0.75387517  0.02491000  0.54478417  1
  Rb  Rb364  1  0.75387517  0.02491000  0.71145083  1
  Rb  Rb365  1  0.75387517  0.02491000  0.87811750  1
  Rb  Rb366  1  0.75387517  0.19157667  0.04478417  1
  Rb  Rb367  1  0.75387517  0.19157667  0.21145083  1
  Rb  Rb368  1  0.75387517  0.19157667  0.37811750  1
  Rb  Rb369  1  0.75387517  0.19157667  0.54478417  1
  Rb  Rb370  1  0.75387517  0.19157667  0.71145083  1
  Rb  Rb371  1  0.75387517  0.19157667  0.87811750  1
  Rb  Rb372  1  0.75387517  0.35824333  0.04478417  1
  Rb  Rb373  1  0.75387517  0.35824333  0.21145083  1
  Rb  Rb374  1  0.75387517  0.35824333  0.37811750  1
  Rb  Rb375  1  0.75387517  0.35824333  0.54478417  1
  Rb  Rb376  1  0.75387517  0.35824333  0.71145083  1
  Rb  Rb377  1  0.75387517  0.35824333  0.87811750  1
  Rb  Rb378  1  0.75387517  0.52491000  0.04478417  1
  Rb  Rb379  1  0.75387517  0.52491000  0.21145083  1
  Rb  Rb380  1  0.75387517  0.52491000  0.37811750  1
  Rb  Rb381  1  0.75387517  0.52491000  0.54478417  1
  Rb  Rb382  1  0.75387517  0.52491000  0.71145083  1
  Rb  Rb383  1  0.75387517  0.52491000  0.87811750  1
  Rb  Rb384  1  0.75387517  0.69157667  0.04478417  1
  Rb  Rb385  1  0.75387517  0.69157667  0.21145083  1
  Rb  Rb386  1  0.75387517  0.69157667  0.37811750  1
  Rb  Rb387  1  0.75387517  0.69157667  0.54478417  1
  Rb  Rb388  1  0.75387517  0.69157667  0.71145083  1
  Rb  Rb389  1  0.75387517  0.69157667  0.87811750  1
  Rb  Rb390  1  0.75387517  0.85824333  0.04478417  1
  Rb  Rb391  1  0.75387517  0.85824333  0.21145083  1
  Rb  Rb392  1  0.75387517  0.85824333  0.37811750  1
  Rb  Rb393  1  0.75387517  0.85824333  0.54478417  1
  Rb  Rb394  1  0.75387517  0.85824333  0.71145083  1
  Rb  Rb395  1  0.75387517  0.85824333  0.87811750  1
  Rb  Rb396  1  0.92054183  0.02491000  0.04478417  1
  Rb  Rb397  1  0.92054183  0.02491000  0.21145083  1
  Rb  Rb398  1  0.92054183  0.02491000  0.37811750  1
  Rb  Rb399  1  0.92054183  0.02491000  0.54478417  1
  Rb  Rb400  1  0.92054183  0.02491000  0.71145083  1
  Rb  Rb401  1  0.92054183  0.02491000  0.87811750  1
  Rb  Rb402  1  0.92054183  0.19157667  0.04478417  1
  Rb  Rb403  1  0.92054183  0.19157667  0.21145083  1
  Rb  Rb404  1  0.92054183  0.19157667  0.37811750  1
  Rb  Rb405  1  0.92054183  0.19157667  0.54478417  1
  Rb  Rb406  1  0.92054183  0.19157667  0.71145083  1
  Rb  Rb407  1  0.92054183  0.19157667  0.87811750  1
  Rb  Rb408  1  0.92054183  0.35824333  0.04478417  1
  Rb  Rb409  1  0.92054183  0.35824333  0.21145083  1
  Rb  Rb410  1  0.92054183  0.35824333  0.37811750  1
  Rb  Rb411  1  0.92054183  0.35824333  0.54478417  1
  Rb  Rb412  1  0.92054183  0.35824333  0.71145083  1
  Rb  Rb413  1  0.92054183  0.35824333  0.87811750  1
  Rb  Rb414  1  0.92054183  0.52491000  0.04478417  1
  Rb  Rb415  1  0.92054183  0.52491000  0.21145083  1
  Rb  Rb416  1  0.92054183  0.52491000  0.37811750  1
  Rb  Rb417  1  0.92054183  0.52491000  0.54478417  1
  Rb  Rb418  1  0.92054183  0.52491000  0.71145083  1
  Rb  Rb419  1  0.92054183  0.52491000  0.87811750  1
  Rb  Rb420  1  0.92054183  0.69157667  0.04478417  1
  Rb  Rb421  1  0.92054183  0.69157667  0.21145083  1
  Rb  Rb422  1  0.92054183  0.69157667  0.37811750  1
  Rb  Rb423  1  0.92054183  0.69157667  0.54478417  1
  Rb  Rb424  1  0.92054183  0.69157667  0.71145083  1
  Rb  Rb425  1  0.92054183  0.69157667  0.87811750  1
  Rb  Rb426  1  0.92054183  0.85824333  0.04478417  1
  Rb  Rb427  1  0.92054183  0.85824333  0.21145083  1
  Rb  Rb428  1  0.92054183  0.85824333  0.37811750  1
  Rb  Rb429  1  0.92054183  0.85824333  0.54478417  1
  Rb  Rb430  1  0.92054183  0.85824333  0.71145083  1
  Rb  Rb431  1  0.92054183  0.85824333  0.87811750  1
  Rb  Rb432  1  0.13202250  0.12140650  0.00299133  1
  Rb  Rb433  1  0.13202250  0.12140650  0.16965800  1
  Rb  Rb434  1  0.13202250  0.12140650  0.33632467  1
  Rb  Rb435  1  0.13202250  0.12140650  0.50299133  1
  Rb  Rb436  1  0.13202250  0.12140650  0.66965800  1
  Rb  Rb437  1  0.13202250  0.12140650  0.83632467  1
  Rb  Rb438  1  0.13202250  0.28807317  0.00299133  1
  Rb  Rb439  1  0.13202250  0.28807317  0.16965800  1
  Rb  Rb440  1  0.13202250  0.28807317  0.33632467  1
  Rb  Rb441  1  0.13202250  0.28807317  0.50299133  1
  Rb  Rb442  1  0.13202250  0.28807317  0.66965800  1
  Rb  Rb443  1  0.13202250  0.28807317  0.83632467  1
  Rb  Rb444  1  0.13202250  0.45473983  0.00299133  1
  Rb  Rb445  1  0.13202250  0.45473983  0.16965800  1
  Rb  Rb446  1  0.13202250  0.45473983  0.33632467  1
  Rb  Rb447  1  0.13202250  0.45473983  0.50299133  1
  Rb  Rb448  1  0.13202250  0.45473983  0.66965800  1
  Rb  Rb449  1  0.13202250  0.45473983  0.83632467  1
  Rb  Rb450  1  0.13202250  0.62140650  0.00299133  1
  Rb  Rb451  1  0.13202250  0.62140650  0.16965800  1
  Rb  Rb452  1  0.13202250  0.62140650  0.33632467  1
  Rb  Rb453  1  0.13202250  0.62140650  0.50299133  1
  Rb  Rb454  1  0.13202250  0.62140650  0.66965800  1
  Rb  Rb455  1  0.13202250  0.62140650  0.83632467  1
  Rb  Rb456  1  0.13202250  0.78807317  0.00299133  1
  Rb  Rb457  1  0.13202250  0.78807317  0.16965800  1
  Rb  Rb458  1  0.13202250  0.78807317  0.33632467  1
  Rb  Rb459  1  0.13202250  0.78807317  0.50299133  1
  Rb  Rb460  1  0.13202250  0.78807317  0.66965800  1
  Rb  Rb461  1  0.13202250  0.78807317  0.83632467  1
  Rb  Rb462  1  0.13202250  0.95473983  0.00299133  1
  Rb  Rb463  1  0.13202250  0.95473983  0.16965800  1
  Rb  Rb464  1  0.13202250  0.95473983  0.33632467  1
  Rb  Rb465  1  0.13202250  0.95473983  0.50299133  1
  Rb  Rb466  1  0.13202250  0.95473983  0.66965800  1
  Rb  Rb467  1  0.13202250  0.95473983  0.83632467  1
  Rb  Rb468  1  0.29868917  0.12140650  0.00299133  1
  Rb  Rb469  1  0.29868917  0.12140650  0.16965800  1
  Rb  Rb470  1  0.29868917  0.12140650  0.33632467  1
  Rb  Rb471  1  0.29868917  0.12140650  0.50299133  1
  Rb  Rb472  1  0.29868917  0.12140650  0.66965800  1
  Rb  Rb473  1  0.29868917  0.12140650  0.83632467  1
  Rb  Rb474  1  0.29868917  0.28807317  0.00299133  1
  Rb  Rb475  1  0.29868917  0.28807317  0.16965800  1
  Rb  Rb476  1  0.29868917  0.28807317  0.33632467  1
  Rb  Rb477  1  0.29868917  0.28807317  0.50299133  1
  Rb  Rb478  1  0.29868917  0.28807317  0.66965800  1
  Rb  Rb479  1  0.29868917  0.28807317  0.83632467  1
  Rb  Rb480  1  0.29868917  0.45473983  0.00299133  1
  Rb  Rb481  1  0.29868917  0.45473983  0.16965800  1
  Rb  Rb482  1  0.29868917  0.45473983  0.33632467  1
  Rb  Rb483  1  0.29868917  0.45473983  0.50299133  1
  Rb  Rb484  1  0.29868917  0.45473983  0.66965800  1
  Rb  Rb485  1  0.29868917  0.45473983  0.83632467  1
  Rb  Rb486  1  0.29868917  0.62140650  0.00299133  1
  Rb  Rb487  1  0.29868917  0.62140650  0.16965800  1
  Rb  Rb488  1  0.29868917  0.62140650  0.33632467  1
  Rb  Rb489  1  0.29868917  0.62140650  0.50299133  1
  Rb  Rb490  1  0.29868917  0.62140650  0.66965800  1
  Rb  Rb491  1  0.29868917  0.62140650  0.83632467  1
  Rb  Rb492  1  0.29868917  0.78807317  0.00299133  1
  Rb  Rb493  1  0.29868917  0.78807317  0.16965800  1
  Rb  Rb494  1  0.29868917  0.78807317  0.33632467  1
  Rb  Rb495  1  0.29868917  0.78807317  0.50299133  1
  Rb  Rb496  1  0.29868917  0.78807317  0.66965800  1
  Rb  Rb497  1  0.29868917  0.78807317  0.83632467  1
  Rb  Rb498  1  0.29868917  0.95473983  0.00299133  1
  Rb  Rb499  1  0.29868917  0.95473983  0.16965800  1
  Rb  Rb500  1  0.29868917  0.95473983  0.33632467  1
  Rb  Rb501  1  0.29868917  0.95473983  0.50299133  1
  Rb  Rb502  1  0.29868917  0.95473983  0.66965800  1
  Rb  Rb503  1  0.29868917  0.95473983  0.83632467  1
  Rb  Rb504  1  0.46535583  0.12140650  0.00299133  1
  Rb  Rb505  1  0.46535583  0.12140650  0.16965800  1
  Rb  Rb506  1  0.46535583  0.12140650  0.33632467  1
  Rb  Rb507  1  0.46535583  0.12140650  0.50299133  1
  Rb  Rb508  1  0.46535583  0.12140650  0.66965800  1
  Rb  Rb509  1  0.46535583  0.12140650  0.83632467  1
  Rb  Rb510  1  0.46535583  0.28807317  0.00299133  1
  Rb  Rb511  1  0.46535583  0.28807317  0.16965800  1
  Rb  Rb512  1  0.46535583  0.28807317  0.33632467  1
  Rb  Rb513  1  0.46535583  0.28807317  0.50299133  1
  Rb  Rb514  1  0.46535583  0.28807317  0.66965800  1
  Rb  Rb515  1  0.46535583  0.28807317  0.83632467  1
  Rb  Rb516  1  0.46535583  0.45473983  0.00299133  1
  Rb  Rb517  1  0.46535583  0.45473983  0.16965800  1
  Rb  Rb518  1  0.46535583  0.45473983  0.33632467  1
  Rb  Rb519  1  0.46535583  0.45473983  0.50299133  1
  Rb  Rb520  1  0.46535583  0.45473983  0.66965800  1
  Rb  Rb521  1  0.46535583  0.45473983  0.83632467  1
  Rb  Rb522  1  0.46535583  0.62140650  0.00299133  1
  Rb  Rb523  1  0.46535583  0.62140650  0.16965800  1
  Rb  Rb524  1  0.46535583  0.62140650  0.33632467  1
  Rb  Rb525  1  0.46535583  0.62140650  0.50299133  1
  Rb  Rb526  1  0.46535583  0.62140650  0.66965800  1
  Rb  Rb527  1  0.46535583  0.62140650  0.83632467  1
  Rb  Rb528  1  0.46535583  0.78807317  0.00299133  1
  Rb  Rb529  1  0.46535583  0.78807317  0.16965800  1
  Rb  Rb530  1  0.46535583  0.78807317  0.33632467  1
  Rb  Rb531  1  0.46535583  0.78807317  0.50299133  1
  Rb  Rb532  1  0.46535583  0.78807317  0.66965800  1
  Rb  Rb533  1  0.46535583  0.78807317  0.83632467  1
  Rb  Rb534  1  0.46535583  0.95473983  0.00299133  1
  Rb  Rb535  1  0.46535583  0.95473983  0.16965800  1
  Rb  Rb536  1  0.46535583  0.95473983  0.33632467  1
  Rb  Rb537  1  0.46535583  0.95473983  0.50299133  1
  Rb  Rb538  1  0.46535583  0.95473983  0.66965800  1
  Rb  Rb539  1  0.46535583  0.95473983  0.83632467  1
  Rb  Rb540  1  0.63202250  0.12140650  0.00299133  1
  Rb  Rb541  1  0.63202250  0.12140650  0.16965800  1
  Rb  Rb542  1  0.63202250  0.12140650  0.33632467  1
  Rb  Rb543  1  0.63202250  0.12140650  0.50299133  1
  Rb  Rb544  1  0.63202250  0.12140650  0.66965800  1
  Rb  Rb545  1  0.63202250  0.12140650  0.83632467  1
  Rb  Rb546  1  0.63202250  0.28807317  0.00299133  1
  Rb  Rb547  1  0.63202250  0.28807317  0.16965800  1
  Rb  Rb548  1  0.63202250  0.28807317  0.33632467  1
  Rb  Rb549  1  0.63202250  0.28807317  0.50299133  1
  Rb  Rb550  1  0.63202250  0.28807317  0.66965800  1
  Rb  Rb551  1  0.63202250  0.28807317  0.83632467  1
  Rb  Rb552  1  0.63202250  0.45473983  0.00299133  1
  Rb  Rb553  1  0.63202250  0.45473983  0.16965800  1
  Rb  Rb554  1  0.63202250  0.45473983  0.33632467  1
  Rb  Rb555  1  0.63202250  0.45473983  0.50299133  1
  Rb  Rb556  1  0.63202250  0.45473983  0.66965800  1
  Rb  Rb557  1  0.63202250  0.45473983  0.83632467  1
  Rb  Rb558  1  0.63202250  0.62140650  0.00299133  1
  Rb  Rb559  1  0.63202250  0.62140650  0.16965800  1
  Rb  Rb560  1  0.63202250  0.62140650  0.33632467  1
  Rb  Rb561  1  0.63202250  0.62140650  0.50299133  1
  Rb  Rb562  1  0.63202250  0.62140650  0.66965800  1
  Rb  Rb563  1  0.63202250  0.62140650  0.83632467  1
  Rb  Rb564  1  0.63202250  0.78807317  0.00299133  1
  Rb  Rb565  1  0.63202250  0.78807317  0.16965800  1
  Rb  Rb566  1  0.63202250  0.78807317  0.33632467  1
  Rb  Rb567  1  0.63202250  0.78807317  0.50299133  1
  Rb  Rb568  1  0.63202250  0.78807317  0.66965800  1
  Rb  Rb569  1  0.63202250  0.78807317  0.83632467  1
  Rb  Rb570  1  0.63202250  0.95473983  0.00299133  1
  Rb  Rb571  1  0.63202250  0.95473983  0.16965800  1
  Rb  Rb572  1  0.63202250  0.95473983  0.33632467  1
  Rb  Rb573  1  0.63202250  0.95473983  0.50299133  1
  Rb  Rb574  1  0.63202250  0.95473983  0.66965800  1
  Rb  Rb575  1  0.63202250  0.95473983  0.83632467  1
  Rb  Rb576  1  0.79868917  0.12140650  0.00299133  1
  Rb  Rb577  1  0.79868917  0.12140650  0.16965800  1
  Rb  Rb578  1  0.79868917  0.12140650  0.33632467  1
  Rb  Rb579  1  0.79868917  0.12140650  0.50299133  1
  Rb  Rb580  1  0.79868917  0.12140650  0.66965800  1
  Rb  Rb581  1  0.79868917  0.12140650  0.83632467  1
  Rb  Rb582  1  0.79868917  0.28807317  0.00299133  1
  Rb  Rb583  1  0.79868917  0.28807317  0.16965800  1
  Rb  Rb584  1  0.79868917  0.28807317  0.33632467  1
  Rb  Rb585  1  0.79868917  0.28807317  0.50299133  1
  Rb  Rb586  1  0.79868917  0.28807317  0.66965800  1
  Rb  Rb587  1  0.79868917  0.28807317  0.83632467  1
  Rb  Rb588  1  0.79868917  0.45473983  0.00299133  1
  Rb  Rb589  1  0.79868917  0.45473983  0.16965800  1
  Rb  Rb590  1  0.79868917  0.45473983  0.33632467  1
  Rb  Rb591  1  0.79868917  0.45473983  0.50299133  1
  Rb  Rb592  1  0.79868917  0.45473983  0.66965800  1
  Rb  Rb593  1  0.79868917  0.45473983  0.83632467  1
  Rb  Rb594  1  0.79868917  0.62140650  0.00299133  1
  Rb  Rb595  1  0.79868917  0.62140650  0.16965800  1
  Rb  Rb596  1  0.79868917  0.62140650  0.33632467  1
  Rb  Rb597  1  0.79868917  0.62140650  0.50299133  1
  Rb  Rb598  1  0.79868917  0.62140650  0.66965800  1
  Rb  Rb599  1  0.79868917  0.62140650  0.83632467  1
  Rb  Rb600  1  0.79868917  0.78807317  0.00299133  1
  Rb  Rb601  1  0.79868917  0.78807317  0.16965800  1
  Rb  Rb602  1  0.79868917  0.78807317  0.33632467  1
  Rb  Rb603  1  0.79868917  0.78807317  0.50299133  1
  Rb  Rb604  1  0.79868917  0.78807317  0.66965800  1
  Rb  Rb605  1  0.79868917  0.78807317  0.83632467  1
  Rb  Rb606  1  0.79868917  0.95473983  0.00299133  1
  Rb  Rb607  1  0.79868917  0.95473983  0.16965800  1
  Rb  Rb608  1  0.79868917  0.95473983  0.33632467  1
  Rb  Rb609  1  0.79868917  0.95473983  0.50299133  1
  Rb  Rb610  1  0.79868917  0.95473983  0.66965800  1
  Rb  Rb611  1  0.79868917  0.95473983  0.83632467  1
  Rb  Rb612  1  0.96535583  0.12140650  0.00299133  1
  Rb  Rb613  1  0.96535583  0.12140650  0.16965800  1
  Rb  Rb614  1  0.96535583  0.12140650  0.33632467  1
  Rb  Rb615  1  0.96535583  0.12140650  0.50299133  1
  Rb  Rb616  1  0.96535583  0.12140650  0.66965800  1
  Rb  Rb617  1  0.96535583  0.12140650  0.83632467  1
  Rb  Rb618  1  0.96535583  0.28807317  0.00299133  1
  Rb  Rb619  1  0.96535583  0.28807317  0.16965800  1
  Rb  Rb620  1  0.96535583  0.28807317  0.33632467  1
  Rb  Rb621  1  0.96535583  0.28807317  0.50299133  1
  Rb  Rb622  1  0.96535583  0.28807317  0.66965800  1
  Rb  Rb623  1  0.96535583  0.28807317  0.83632467  1
  Rb  Rb624  1  0.96535583  0.45473983  0.00299133  1
  Rb  Rb625  1  0.96535583  0.45473983  0.16965800  1
  Rb  Rb626  1  0.96535583  0.45473983  0.33632467  1
  Rb  Rb627  1  0.96535583  0.45473983  0.50299133  1
  Rb  Rb628  1  0.96535583  0.45473983  0.66965800  1
  Rb  Rb629  1  0.96535583  0.45473983  0.83632467  1
  Rb  Rb630  1  0.96535583  0.62140650  0.00299133  1
  Rb  Rb631  1  0.96535583  0.62140650  0.16965800  1
  Rb  Rb632  1  0.96535583  0.62140650  0.33632467  1
  Rb  Rb633  1  0.96535583  0.62140650  0.50299133  1
  Rb  Rb634  1  0.96535583  0.62140650  0.66965800  1
  Rb  Rb635  1  0.96535583  0.62140650  0.83632467  1
  Rb  Rb636  1  0.96535583  0.78807317  0.00299133  1
  Rb  Rb637  1  0.96535583  0.78807317  0.16965800  1
  Rb  Rb638  1  0.96535583  0.78807317  0.33632467  1
  Rb  Rb639  1  0.96535583  0.78807317  0.50299133  1
  Rb  Rb640  1  0.96535583  0.78807317  0.66965800  1
  Rb  Rb641  1  0.96535583  0.78807317  0.83632467  1
  Rb  Rb642  1  0.96535583  0.95473983  0.00299133  1
  Rb  Rb643  1  0.96535583  0.95473983  0.16965800  1
  Rb  Rb644  1  0.96535583  0.95473983  0.33632467  1
  Rb  Rb645  1  0.96535583  0.95473983  0.50299133  1
  Rb  Rb646  1  0.96535583  0.95473983  0.66965800  1
  Rb  Rb647  1  0.96535583  0.95473983  0.83632467  1
  Rb  Rb648  1  0.03464417  0.04526017  0.16367533  1
  Rb  Rb649  1  0.03464417  0.04526017  0.33034200  1
  Rb  Rb650  1  0.03464417  0.04526017  0.49700867  1
  Rb  Rb651  1  0.03464417  0.04526017  0.66367533  1
  Rb  Rb652  1  0.03464417  0.04526017  0.83034200  1
  Rb  Rb653  1  0.03464417  0.04526017  0.99700867  1
  Rb  Rb654  1  0.03464417  0.21192683  0.16367533  1
  Rb  Rb655  1  0.03464417  0.21192683  0.33034200  1
  Rb  Rb656  1  0.03464417  0.21192683  0.49700867  1
  Rb  Rb657  1  0.03464417  0.21192683  0.66367533  1
  Rb  Rb658  1  0.03464417  0.21192683  0.83034200  1
  Rb  Rb659  1  0.03464417  0.21192683  0.99700867  1
  Rb  Rb660  1  0.03464417  0.37859350  0.16367533  1
  Rb  Rb661  1  0.03464417  0.37859350  0.33034200  1
  Rb  Rb662  1  0.03464417  0.37859350  0.49700867  1
  Rb  Rb663  1  0.03464417  0.37859350  0.66367533  1
  Rb  Rb664  1  0.03464417  0.37859350  0.83034200  1
  Rb  Rb665  1  0.03464417  0.37859350  0.99700867  1
  Rb  Rb666  1  0.03464417  0.54526017  0.16367533  1
  Rb  Rb667  1  0.03464417  0.54526017  0.33034200  1
  Rb  Rb668  1  0.03464417  0.54526017  0.49700867  1
  Rb  Rb669  1  0.03464417  0.54526017  0.66367533  1
  Rb  Rb670  1  0.03464417  0.54526017  0.83034200  1
  Rb  Rb671  1  0.03464417  0.54526017  0.99700867  1
  Rb  Rb672  1  0.03464417  0.71192683  0.16367533  1
  Rb  Rb673  1  0.03464417  0.71192683  0.33034200  1
  Rb  Rb674  1  0.03464417  0.71192683  0.49700867  1
  Rb  Rb675  1  0.03464417  0.71192683  0.66367533  1
  Rb  Rb676  1  0.03464417  0.71192683  0.83034200  1
  Rb  Rb677  1  0.03464417  0.71192683  0.99700867  1
  Rb  Rb678  1  0.03464417  0.87859350  0.16367533  1
  Rb  Rb679  1  0.03464417  0.87859350  0.33034200  1
  Rb  Rb680  1  0.03464417  0.87859350  0.49700867  1
  Rb  Rb681  1  0.03464417  0.87859350  0.66367533  1
  Rb  Rb682  1  0.03464417  0.87859350  0.83034200  1
  Rb  Rb683  1  0.03464417  0.87859350  0.99700867  1
  Rb  Rb684  1  0.20131083  0.04526017  0.16367533  1
  Rb  Rb685  1  0.20131083  0.04526017  0.33034200  1
  Rb  Rb686  1  0.20131083  0.04526017  0.49700867  1
  Rb  Rb687  1  0.20131083  0.04526017  0.66367533  1
  Rb  Rb688  1  0.20131083  0.04526017  0.83034200  1
  Rb  Rb689  1  0.20131083  0.04526017  0.99700867  1
  Rb  Rb690  1  0.20131083  0.21192683  0.16367533  1
  Rb  Rb691  1  0.20131083  0.21192683  0.33034200  1
  Rb  Rb692  1  0.20131083  0.21192683  0.49700867  1
  Rb  Rb693  1  0.20131083  0.21192683  0.66367533  1
  Rb  Rb694  1  0.20131083  0.21192683  0.83034200  1
  Rb  Rb695  1  0.20131083  0.21192683  0.99700867  1
  Rb  Rb696  1  0.20131083  0.37859350  0.16367533  1
  Rb  Rb697  1  0.20131083  0.37859350  0.33034200  1
  Rb  Rb698  1  0.20131083  0.37859350  0.49700867  1
  Rb  Rb699  1  0.20131083  0.37859350  0.66367533  1
  Rb  Rb700  1  0.20131083  0.37859350  0.83034200  1
  Rb  Rb701  1  0.20131083  0.37859350  0.99700867  1
  Rb  Rb702  1  0.20131083  0.54526017  0.16367533  1
  Rb  Rb703  1  0.20131083  0.54526017  0.33034200  1
  Rb  Rb704  1  0.20131083  0.54526017  0.49700867  1
  Rb  Rb705  1  0.20131083  0.54526017  0.66367533  1
  Rb  Rb706  1  0.20131083  0.54526017  0.83034200  1
  Rb  Rb707  1  0.20131083  0.54526017  0.99700867  1
  Rb  Rb708  1  0.20131083  0.71192683  0.16367533  1
  Rb  Rb709  1  0.20131083  0.71192683  0.33034200  1
  Rb  Rb710  1  0.20131083  0.71192683  0.49700867  1
  Rb  Rb711  1  0.20131083  0.71192683  0.66367533  1
  Rb  Rb712  1  0.20131083  0.71192683  0.83034200  1
  Rb  Rb713  1  0.20131083  0.71192683  0.99700867  1
  Rb  Rb714  1  0.20131083  0.87859350  0.16367533  1
  Rb  Rb715  1  0.20131083  0.87859350  0.33034200  1
  Rb  Rb716  1  0.20131083  0.87859350  0.49700867  1
  Rb  Rb717  1  0.20131083  0.87859350  0.66367533  1
  Rb  Rb718  1  0.20131083  0.87859350  0.83034200  1
  Rb  Rb719  1  0.20131083  0.87859350  0.99700867  1
  Rb  Rb720  1  0.36797750  0.04526017  0.16367533  1
  Rb  Rb721  1  0.36797750  0.04526017  0.33034200  1
  Rb  Rb722  1  0.36797750  0.04526017  0.49700867  1
  Rb  Rb723  1  0.36797750  0.04526017  0.66367533  1
  Rb  Rb724  1  0.36797750  0.04526017  0.83034200  1
  Rb  Rb725  1  0.36797750  0.04526017  0.99700867  1
  Rb  Rb726  1  0.36797750  0.21192683  0.16367533  1
  Rb  Rb727  1  0.36797750  0.21192683  0.33034200  1
  Rb  Rb728  1  0.36797750  0.21192683  0.49700867  1
  Rb  Rb729  1  0.36797750  0.21192683  0.66367533  1
  Rb  Rb730  1  0.36797750  0.21192683  0.83034200  1
  Rb  Rb731  1  0.36797750  0.21192683  0.99700867  1
  Rb  Rb732  1  0.36797750  0.37859350  0.16367533  1
  Rb  Rb733  1  0.36797750  0.37859350  0.33034200  1
  Rb  Rb734  1  0.36797750  0.37859350  0.49700867  1
  Rb  Rb735  1  0.36797750  0.37859350  0.66367533  1
  Rb  Rb736  1  0.36797750  0.37859350  0.83034200  1
  Rb  Rb737  1  0.36797750  0.37859350  0.99700867  1
  Rb  Rb738  1  0.36797750  0.54526017  0.16367533  1
  Rb  Rb739  1  0.36797750  0.54526017  0.33034200  1
  Rb  Rb740  1  0.36797750  0.54526017  0.49700867  1
  Rb  Rb741  1  0.36797750  0.54526017  0.66367533  1
  Rb  Rb742  1  0.36797750  0.54526017  0.83034200  1
  Rb  Rb743  1  0.36797750  0.54526017  0.99700867  1
  Rb  Rb744  1  0.36797750  0.71192683  0.16367533  1
  Rb  Rb745  1  0.36797750  0.71192683  0.33034200  1
  Rb  Rb746  1  0.36797750  0.71192683  0.49700867  1
  Rb  Rb747  1  0.36797750  0.71192683  0.66367533  1
  Rb  Rb748  1  0.36797750  0.71192683  0.83034200  1
  Rb  Rb749  1  0.36797750  0.71192683  0.99700867  1
  Rb  Rb750  1  0.36797750  0.87859350  0.16367533  1
  Rb  Rb751  1  0.36797750  0.87859350  0.33034200  1
  Rb  Rb752  1  0.36797750  0.87859350  0.49700867  1
  Rb  Rb753  1  0.36797750  0.87859350  0.66367533  1
  Rb  Rb754  1  0.36797750  0.87859350  0.83034200  1
  Rb  Rb755  1  0.36797750  0.87859350  0.99700867  1
  Rb  Rb756  1  0.53464417  0.04526017  0.16367533  1
  Rb  Rb757  1  0.53464417  0.04526017  0.33034200  1
  Rb  Rb758  1  0.53464417  0.04526017  0.49700867  1
  Rb  Rb759  1  0.53464417  0.04526017  0.66367533  1
  Rb  Rb760  1  0.53464417  0.04526017  0.83034200  1
  Rb  Rb761  1  0.53464417  0.04526017  0.99700867  1
  Rb  Rb762  1  0.53464417  0.21192683  0.16367533  1
  Rb  Rb763  1  0.53464417  0.21192683  0.33034200  1
  Rb  Rb764  1  0.53464417  0.21192683  0.49700867  1
  Rb  Rb765  1  0.53464417  0.21192683  0.66367533  1
  Rb  Rb766  1  0.53464417  0.21192683  0.83034200  1
  Rb  Rb767  1  0.53464417  0.21192683  0.99700867  1
  Rb  Rb768  1  0.53464417  0.37859350  0.16367533  1
  Rb  Rb769  1  0.53464417  0.37859350  0.33034200  1
  Rb  Rb770  1  0.53464417  0.37859350  0.49700867  1
  Rb  Rb771  1  0.53464417  0.37859350  0.66367533  1
  Rb  Rb772  1  0.53464417  0.37859350  0.83034200  1
  Rb  Rb773  1  0.53464417  0.37859350  0.99700867  1
  Rb  Rb774  1  0.53464417  0.54526017  0.16367533  1
  Rb  Rb775  1  0.53464417  0.54526017  0.33034200  1
  Rb  Rb776  1  0.53464417  0.54526017  0.49700867  1
  Rb  Rb777  1  0.53464417  0.54526017  0.66367533  1
  Rb  Rb778  1  0.53464417  0.54526017  0.83034200  1
  Rb  Rb779  1  0.53464417  0.54526017  0.99700867  1
  Rb  Rb780  1  0.53464417  0.71192683  0.16367533  1
  Rb  Rb781  1  0.53464417  0.71192683  0.33034200  1
  Rb  Rb782  1  0.53464417  0.71192683  0.49700867  1
  Rb  Rb783  1  0.53464417  0.71192683  0.66367533  1
  Rb  Rb784  1  0.53464417  0.71192683  0.83034200  1
  Rb  Rb785  1  0.53464417  0.71192683  0.99700867  1
  Rb  Rb786  1  0.53464417  0.87859350  0.16367533  1
  Rb  Rb787  1  0.53464417  0.87859350  0.33034200  1
  Rb  Rb788  1  0.53464417  0.87859350  0.49700867  1
  Rb  Rb789  1  0.53464417  0.87859350  0.66367533  1
  Rb  Rb790  1  0.53464417  0.87859350  0.83034200  1
  Rb  Rb791  1  0.53464417  0.87859350  0.99700867  1
  Rb  Rb792  1  0.70131083  0.04526017  0.16367533  1
  Rb  Rb793  1  0.70131083  0.04526017  0.33034200  1
  Rb  Rb794  1  0.70131083  0.04526017  0.49700867  1
  Rb  Rb795  1  0.70131083  0.04526017  0.66367533  1
  Rb  Rb796  1  0.70131083  0.04526017  0.83034200  1
  Rb  Rb797  1  0.70131083  0.04526017  0.99700867  1
  Rb  Rb798  1  0.70131083  0.21192683  0.16367533  1
  Rb  Rb799  1  0.70131083  0.21192683  0.33034200  1
  Rb  Rb800  1  0.70131083  0.21192683  0.49700867  1
  Rb  Rb801  1  0.70131083  0.21192683  0.66367533  1
  Rb  Rb802  1  0.70131083  0.21192683  0.83034200  1
  Rb  Rb803  1  0.70131083  0.21192683  0.99700867  1
  Rb  Rb804  1  0.70131083  0.37859350  0.16367533  1
  Rb  Rb805  1  0.70131083  0.37859350  0.33034200  1
  Rb  Rb806  1  0.70131083  0.37859350  0.49700867  1
  Rb  Rb807  1  0.70131083  0.37859350  0.66367533  1
  Rb  Rb808  1  0.70131083  0.37859350  0.83034200  1
  Rb  Rb809  1  0.70131083  0.37859350  0.99700867  1
  Rb  Rb810  1  0.70131083  0.54526017  0.16367533  1
  Rb  Rb811  1  0.70131083  0.54526017  0.33034200  1
  Rb  Rb812  1  0.70131083  0.54526017  0.49700867  1
  Rb  Rb813  1  0.70131083  0.54526017  0.66367533  1
  Rb  Rb814  1  0.70131083  0.54526017  0.83034200  1
  Rb  Rb815  1  0.70131083  0.54526017  0.99700867  1
  Rb  Rb816  1  0.70131083  0.71192683  0.16367533  1
  Rb  Rb817  1  0.70131083  0.71192683  0.33034200  1
  Rb  Rb818  1  0.70131083  0.71192683  0.49700867  1
  Rb  Rb819  1  0.70131083  0.71192683  0.66367533  1
  Rb  Rb820  1  0.70131083  0.71192683  0.83034200  1
  Rb  Rb821  1  0.70131083  0.71192683  0.99700867  1
  Rb  Rb822  1  0.70131083  0.87859350  0.16367533  1
  Rb  Rb823  1  0.70131083  0.87859350  0.33034200  1
  Rb  Rb824  1  0.70131083  0.87859350  0.49700867  1
  Rb  Rb825  1  0.70131083  0.87859350  0.66367533  1
  Rb  Rb826  1  0.70131083  0.87859350  0.83034200  1
  Rb  Rb827  1  0.70131083  0.87859350  0.99700867  1
  Rb  Rb828  1  0.86797750  0.04526017  0.16367533  1
  Rb  Rb829  1  0.86797750  0.04526017  0.33034200  1
  Rb  Rb830  1  0.86797750  0.04526017  0.49700867  1
  Rb  Rb831  1  0.86797750  0.04526017  0.66367533  1
  Rb  Rb832  1  0.86797750  0.04526017  0.83034200  1
  Rb  Rb833  1  0.86797750  0.04526017  0.99700867  1
  Rb  Rb834  1  0.86797750  0.21192683  0.16367533  1
  Rb  Rb835  1  0.86797750  0.21192683  0.33034200  1
  Rb  Rb836  1  0.86797750  0.21192683  0.49700867  1
  Rb  Rb837  1  0.86797750  0.21192683  0.66367533  1
  Rb  Rb838  1  0.86797750  0.21192683  0.83034200  1
  Rb  Rb839  1  0.86797750  0.21192683  0.99700867  1
  Rb  Rb840  1  0.86797750  0.37859350  0.16367533  1
  Rb  Rb841  1  0.86797750  0.37859350  0.33034200  1
  Rb  Rb842  1  0.86797750  0.37859350  0.49700867  1
  Rb  Rb843  1  0.86797750  0.37859350  0.66367533  1
  Rb  Rb844  1  0.86797750  0.37859350  0.83034200  1
  Rb  Rb845  1  0.86797750  0.37859350  0.99700867  1
  Rb  Rb846  1  0.86797750  0.54526017  0.16367533  1
  Rb  Rb847  1  0.86797750  0.54526017  0.33034200  1
  Rb  Rb848  1  0.86797750  0.54526017  0.49700867  1
  Rb  Rb849  1  0.86797750  0.54526017  0.66367533  1
  Rb  Rb850  1  0.86797750  0.54526017  0.83034200  1
  Rb  Rb851  1  0.86797750  0.54526017  0.99700867  1
  Rb  Rb852  1  0.86797750  0.71192683  0.16367533  1
  Rb  Rb853  1  0.86797750  0.71192683  0.33034200  1
  Rb  Rb854  1  0.86797750  0.71192683  0.49700867  1
  Rb  Rb855  1  0.86797750  0.71192683  0.66367533  1
  Rb  Rb856  1  0.86797750  0.71192683  0.83034200  1
  Rb  Rb857  1  0.86797750  0.71192683  0.99700867  1
  Rb  Rb858  1  0.86797750  0.87859350  0.16367533  1
  Rb  Rb859  1  0.86797750  0.87859350  0.33034200  1
  Rb  Rb860  1  0.86797750  0.87859350  0.49700867  1
  Rb  Rb861  1  0.86797750  0.87859350  0.66367533  1
  Rb  Rb862  1  0.86797750  0.87859350  0.83034200  1
  Rb  Rb863  1  0.86797750  0.87859350  0.99700867  1
  Li  Li864  1  0.15534883  0.03141483  0.07302900  1
  Li  Li865  1  0.15534883  0.03141483  0.23969567  1
  Li  Li866  1  0.15534883  0.03141483  0.40636233  1
  Li  Li867  1  0.15534883  0.03141483  0.57302900  1
  Li  Li868  1  0.15534883  0.03141483  0.73969567  1
  Li  Li869  1  0.15534883  0.03141483  0.90636233  1
  Li  Li870  1  0.15534883  0.19808150  0.07302900  1
  Li  Li871  1  0.15534883  0.19808150  0.23969567  1
  Li  Li872  1  0.15534883  0.19808150  0.40636233  1
  Li  Li873  1  0.15534883  0.19808150  0.57302900  1
  Li  Li874  1  0.15534883  0.19808150  0.73969567  1
  Li  Li875  1  0.15534883  0.19808150  0.90636233  1
  Li  Li876  1  0.15534883  0.36474817  0.07302900  1
  Li  Li877  1  0.15534883  0.36474817  0.23969567  1
  Li  Li878  1  0.15534883  0.36474817  0.40636233  1
  Li  Li879  1  0.15534883  0.36474817  0.57302900  1
  Li  Li880  1  0.15534883  0.36474817  0.73969567  1
  Li  Li881  1  0.15534883  0.36474817  0.90636233  1
  Li  Li882  1  0.15534883  0.53141483  0.07302900  1
  Li  Li883  1  0.15534883  0.53141483  0.23969567  1
  Li  Li884  1  0.15534883  0.53141483  0.40636233  1
  Li  Li885  1  0.15534883  0.53141483  0.57302900  1
  Li  Li886  1  0.15534883  0.53141483  0.73969567  1
  Li  Li887  1  0.15534883  0.53141483  0.90636233  1
  Li  Li888  1  0.15534883  0.69808150  0.07302900  1
  Li  Li889  1  0.15534883  0.69808150  0.23969567  1
  Li  Li890  1  0.15534883  0.69808150  0.40636233  1
  Li  Li891  1  0.15534883  0.69808150  0.57302900  1
  Li  Li892  1  0.15534883  0.69808150  0.73969567  1
  Li  Li893  1  0.15534883  0.69808150  0.90636233  1
  Li  Li894  1  0.15534883  0.86474817  0.07302900  1
  Li  Li895  1  0.15534883  0.86474817  0.23969567  1
  Li  Li896  1  0.15534883  0.86474817  0.40636233  1
  Li  Li897  1  0.15534883  0.86474817  0.57302900  1
  Li  Li898  1  0.15534883  0.86474817  0.73969567  1
  Li  Li899  1  0.15534883  0.86474817  0.90636233  1
  Li  Li900  1  0.32201550  0.03141483  0.07302900  1
  Li  Li901  1  0.32201550  0.03141483  0.23969567  1
  Li  Li902  1  0.32201550  0.03141483  0.40636233  1
  Li  Li903  1  0.32201550  0.03141483  0.57302900  1
  Li  Li904  1  0.32201550  0.03141483  0.73969567  1
  Li  Li905  1  0.32201550  0.03141483  0.90636233  1
  Li  Li906  1  0.32201550  0.19808150  0.07302900  1
  Li  Li907  1  0.32201550  0.19808150  0.23969567  1
  Li  Li908  1  0.32201550  0.19808150  0.40636233  1
  Li  Li909  1  0.32201550  0.19808150  0.57302900  1
  Li  Li910  1  0.32201550  0.19808150  0.73969567  1
  Li  Li911  1  0.32201550  0.19808150  0.90636233  1
  Li  Li912  1  0.32201550  0.36474817  0.07302900  1
  Li  Li913  1  0.32201550  0.36474817  0.23969567  1
  Li  Li914  1  0.32201550  0.36474817  0.40636233  1
  Li  Li915  1  0.32201550  0.36474817  0.57302900  1
  Li  Li916  1  0.32201550  0.36474817  0.73969567  1
  Li  Li917  1  0.32201550  0.36474817  0.90636233  1
  Li  Li918  1  0.32201550  0.53141483  0.07302900  1
  Li  Li919  1  0.32201550  0.53141483  0.23969567  1
  Li  Li920  1  0.32201550  0.53141483  0.40636233  1
  Li  Li921  1  0.32201550  0.53141483  0.57302900  1
  Li  Li922  1  0.32201550  0.53141483  0.73969567  1
  Li  Li923  1  0.32201550  0.53141483  0.90636233  1
  Li  Li924  1  0.32201550  0.69808150  0.07302900  1
  Li  Li925  1  0.32201550  0.69808150  0.23969567  1
  Li  Li926  1  0.32201550  0.69808150  0.40636233  1
  Li  Li927  1  0.32201550  0.69808150  0.57302900  1
  Li  Li928  1  0.32201550  0.69808150  0.73969567  1
  Li  Li929  1  0.32201550  0.69808150  0.90636233  1
  Li  Li930  1  0.32201550  0.86474817  0.07302900  1
  Li  Li931  1  0.32201550  0.86474817  0.23969567  1
  Li  Li932  1  0.32201550  0.86474817  0.40636233  1
  Li  Li933  1  0.32201550  0.86474817  0.57302900  1
  Li  Li934  1  0.32201550  0.86474817  0.73969567  1
  Li  Li935  1  0.32201550  0.86474817  0.90636233  1
  Li  Li936  1  0.48868217  0.03141483  0.07302900  1
  Li  Li937  1  0.48868217  0.03141483  0.23969567  1
  Li  Li938  1  0.48868217  0.03141483  0.40636233  1
  Li  Li939  1  0.48868217  0.03141483  0.57302900  1
  Li  Li940  1  0.48868217  0.03141483  0.73969567  1
  Li  Li941  1  0.48868217  0.03141483  0.90636233  1
  Li  Li942  1  0.48868217  0.19808150  0.07302900  1
  Li  Li943  1  0.48868217  0.19808150  0.23969567  1
  Li  Li944  1  0.48868217  0.19808150  0.40636233  1
  Li  Li945  1  0.48868217  0.19808150  0.57302900  1
  Li  Li946  1  0.48868217  0.19808150  0.73969567  1
  Li  Li947  1  0.48868217  0.19808150  0.90636233  1
  Li  Li948  1  0.48868217  0.36474817  0.07302900  1
  Li  Li949  1  0.48868217  0.36474817  0.23969567  1
  Li  Li950  1  0.48868217  0.36474817  0.40636233  1
  Li  Li951  1  0.48868217  0.36474817  0.57302900  1
  Li  Li952  1  0.48868217  0.36474817  0.73969567  1
  Li  Li953  1  0.48868217  0.36474817  0.90636233  1
  Li  Li954  1  0.48868217  0.53141483  0.07302900  1
  Li  Li955  1  0.48868217  0.53141483  0.23969567  1
  Li  Li956  1  0.48868217  0.53141483  0.40636233  1
  Li  Li957  1  0.48868217  0.53141483  0.57302900  1
  Li  Li958  1  0.48868217  0.53141483  0.73969567  1
  Li  Li959  1  0.48868217  0.53141483  0.90636233  1
  Li  Li960  1  0.48868217  0.69808150  0.07302900  1
  Li  Li961  1  0.48868217  0.69808150  0.23969567  1
  Li  Li962  1  0.48868217  0.69808150  0.40636233  1
  Li  Li963  1  0.48868217  0.69808150  0.57302900  1
  Li  Li964  1  0.48868217  0.69808150  0.73969567  1
  Li  Li965  1  0.48868217  0.69808150  0.90636233  1
  Li  Li966  1  0.48868217  0.86474817  0.07302900  1
  Li  Li967  1  0.48868217  0.86474817  0.23969567  1
  Li  Li968  1  0.48868217  0.86474817  0.40636233  1
  Li  Li969  1  0.48868217  0.86474817  0.57302900  1
  Li  Li970  1  0.48868217  0.86474817  0.73969567  1
  Li  Li971  1  0.48868217  0.86474817  0.90636233  1
  Li  Li972  1  0.65534883  0.03141483  0.07302900  1
  Li  Li973  1  0.65534883  0.03141483  0.23969567  1
  Li  Li974  1  0.65534883  0.03141483  0.40636233  1
  Li  Li975  1  0.65534883  0.03141483  0.57302900  1
  Li  Li976  1  0.65534883  0.03141483  0.73969567  1
  Li  Li977  1  0.65534883  0.03141483  0.90636233  1
  Li  Li978  1  0.65534883  0.19808150  0.07302900  1
  Li  Li979  1  0.65534883  0.19808150  0.23969567  1
  Li  Li980  1  0.65534883  0.19808150  0.40636233  1
  Li  Li981  1  0.65534883  0.19808150  0.57302900  1
  Li  Li982  1  0.65534883  0.19808150  0.73969567  1
  Li  Li983  1  0.65534883  0.19808150  0.90636233  1
  Li  Li984  1  0.65534883  0.36474817  0.07302900  1
  Li  Li985  1  0.65534883  0.36474817  0.23969567  1
  Li  Li986  1  0.65534883  0.36474817  0.40636233  1
  Li  Li987  1  0.65534883  0.36474817  0.57302900  1
  Li  Li988  1  0.65534883  0.36474817  0.73969567  1
  Li  Li989  1  0.65534883  0.36474817  0.90636233  1
  Li  Li990  1  0.65534883  0.53141483  0.07302900  1
  Li  Li991  1  0.65534883  0.53141483  0.23969567  1
  Li  Li992  1  0.65534883  0.53141483  0.40636233  1
  Li  Li993  1  0.65534883  0.53141483  0.57302900  1
  Li  Li994  1  0.65534883  0.53141483  0.73969567  1
  Li  Li995  1  0.65534883  0.53141483  0.90636233  1
  Li  Li996  1  0.65534883  0.69808150  0.07302900  1
  Li  Li997  1  0.65534883  0.69808150  0.23969567  1
  Li  Li998  1  0.65534883  0.69808150  0.40636233  1
  Li  Li999  1  0.65534883  0.69808150  0.57302900  1
  Li  Li1000  1  0.65534883  0.69808150  0.73969567  1
  Li  Li1001  1  0.65534883  0.69808150  0.90636233  1
  Li  Li1002  1  0.65534883  0.86474817  0.07302900  1
  Li  Li1003  1  0.65534883  0.86474817  0.23969567  1
  Li  Li1004  1  0.65534883  0.86474817  0.40636233  1
  Li  Li1005  1  0.65534883  0.86474817  0.57302900  1
  Li  Li1006  1  0.65534883  0.86474817  0.73969567  1
  Li  Li1007  1  0.65534883  0.86474817  0.90636233  1
  Li  Li1008  1  0.82201550  0.03141483  0.07302900  1
  Li  Li1009  1  0.82201550  0.03141483  0.23969567  1
  Li  Li1010  1  0.82201550  0.03141483  0.40636233  1
  Li  Li1011  1  0.82201550  0.03141483  0.57302900  1
  Li  Li1012  1  0.82201550  0.03141483  0.73969567  1
  Li  Li1013  1  0.82201550  0.03141483  0.90636233  1
  Li  Li1014  1  0.82201550  0.19808150  0.07302900  1
  Li  Li1015  1  0.82201550  0.19808150  0.23969567  1
  Li  Li1016  1  0.82201550  0.19808150  0.40636233  1
  Li  Li1017  1  0.82201550  0.19808150  0.57302900  1
  Li  Li1018  1  0.82201550  0.19808150  0.73969567  1
  Li  Li1019  1  0.82201550  0.19808150  0.90636233  1
  Li  Li1020  1  0.82201550  0.36474817  0.07302900  1
  Li  Li1021  1  0.82201550  0.36474817  0.23969567  1
  Li  Li1022  1  0.82201550  0.36474817  0.40636233  1
  Li  Li1023  1  0.82201550  0.36474817  0.57302900  1
  Li  Li1024  1  0.82201550  0.36474817  0.73969567  1
  Li  Li1025  1  0.82201550  0.36474817  0.90636233  1
  Li  Li1026  1  0.82201550  0.53141483  0.07302900  1
  Li  Li1027  1  0.82201550  0.53141483  0.23969567  1
  Li  Li1028  1  0.82201550  0.53141483  0.40636233  1
  Li  Li1029  1  0.82201550  0.53141483  0.57302900  1
  Li  Li1030  1  0.82201550  0.53141483  0.73969567  1
  Li  Li1031  1  0.82201550  0.53141483  0.90636233  1
  Li  Li1032  1  0.82201550  0.69808150  0.07302900  1
  Li  Li1033  1  0.82201550  0.69808150  0.23969567  1
  Li  Li1034  1  0.82201550  0.69808150  0.40636233  1
  Li  Li1035  1  0.82201550  0.69808150  0.57302900  1
  Li  Li1036  1  0.82201550  0.69808150  0.73969567  1
  Li  Li1037  1  0.82201550  0.69808150  0.90636233  1
  Li  Li1038  1  0.82201550  0.86474817  0.07302900  1
  Li  Li1039  1  0.82201550  0.86474817  0.23969567  1
  Li  Li1040  1  0.82201550  0.86474817  0.40636233  1
  Li  Li1041  1  0.82201550  0.86474817  0.57302900  1
  Li  Li1042  1  0.82201550  0.86474817  0.73969567  1
  Li  Li1043  1  0.82201550  0.86474817  0.90636233  1
  Li  Li1044  1  0.98868217  0.03141483  0.07302900  1
  Li  Li1045  1  0.98868217  0.03141483  0.23969567  1
  Li  Li1046  1  0.98868217  0.03141483  0.40636233  1
  Li  Li1047  1  0.98868217  0.03141483  0.57302900  1
  Li  Li1048  1  0.98868217  0.03141483  0.73969567  1
  Li  Li1049  1  0.98868217  0.03141483  0.90636233  1
  Li  Li1050  1  0.98868217  0.19808150  0.07302900  1
  Li  Li1051  1  0.98868217  0.19808150  0.23969567  1
  Li  Li1052  1  0.98868217  0.19808150  0.40636233  1
  Li  Li1053  1  0.98868217  0.19808150  0.57302900  1
  Li  Li1054  1  0.98868217  0.19808150  0.73969567  1
  Li  Li1055  1  0.98868217  0.19808150  0.90636233  1
  Li  Li1056  1  0.98868217  0.36474817  0.07302900  1
  Li  Li1057  1  0.98868217  0.36474817  0.23969567  1
  Li  Li1058  1  0.98868217  0.36474817  0.40636233  1
  Li  Li1059  1  0.98868217  0.36474817  0.57302900  1
  Li  Li1060  1  0.98868217  0.36474817  0.73969567  1
  Li  Li1061  1  0.98868217  0.36474817  0.90636233  1
  Li  Li1062  1  0.98868217  0.53141483  0.07302900  1
  Li  Li1063  1  0.98868217  0.53141483  0.23969567  1
  Li  Li1064  1  0.98868217  0.53141483  0.40636233  1
  Li  Li1065  1  0.98868217  0.53141483  0.57302900  1
  Li  Li1066  1  0.98868217  0.53141483  0.73969567  1
  Li  Li1067  1  0.98868217  0.53141483  0.90636233  1
  Li  Li1068  1  0.98868217  0.69808150  0.07302900  1
  Li  Li1069  1  0.98868217  0.69808150  0.23969567  1
  Li  Li1070  1  0.98868217  0.69808150  0.40636233  1
  Li  Li1071  1  0.98868217  0.69808150  0.57302900  1
  Li  Li1072  1  0.98868217  0.69808150  0.73969567  1
  Li  Li1073  1  0.98868217  0.69808150  0.90636233  1
  Li  Li1074  1  0.98868217  0.86474817  0.07302900  1
  Li  Li1075  1  0.98868217  0.86474817  0.23969567  1
  Li  Li1076  1  0.98868217  0.86474817  0.40636233  1
  Li  Li1077  1  0.98868217  0.86474817  0.57302900  1
  Li  Li1078  1  0.98868217  0.86474817  0.73969567  1
  Li  Li1079  1  0.98868217  0.86474817  0.90636233  1
  Li  Li1080  1  0.01131783  0.13525183  0.09363767  1
  Li  Li1081  1  0.01131783  0.13525183  0.26030433  1
  Li  Li1082  1  0.01131783  0.13525183  0.42697100  1
  Li  Li1083  1  0.01131783  0.13525183  0.59363767  1
  Li  Li1084  1  0.01131783  0.13525183  0.76030433  1
  Li  Li1085  1  0.01131783  0.13525183  0.92697100  1
  Li  Li1086  1  0.01131783  0.30191850  0.09363767  1
  Li  Li1087  1  0.01131783  0.30191850  0.26030433  1
  Li  Li1088  1  0.01131783  0.30191850  0.42697100  1
  Li  Li1089  1  0.01131783  0.30191850  0.59363767  1
  Li  Li1090  1  0.01131783  0.30191850  0.76030433  1
  Li  Li1091  1  0.01131783  0.30191850  0.92697100  1
  Li  Li1092  1  0.01131783  0.46858517  0.09363767  1
  Li  Li1093  1  0.01131783  0.46858517  0.26030433  1
  Li  Li1094  1  0.01131783  0.46858517  0.42697100  1
  Li  Li1095  1  0.01131783  0.46858517  0.59363767  1
  Li  Li1096  1  0.01131783  0.46858517  0.76030433  1
  Li  Li1097  1  0.01131783  0.46858517  0.92697100  1
  Li  Li1098  1  0.01131783  0.63525183  0.09363767  1
  Li  Li1099  1  0.01131783  0.63525183  0.26030433  1
  Li  Li1100  1  0.01131783  0.63525183  0.42697100  1
  Li  Li1101  1  0.01131783  0.63525183  0.59363767  1
  Li  Li1102  1  0.01131783  0.63525183  0.76030433  1
  Li  Li1103  1  0.01131783  0.63525183  0.92697100  1
  Li  Li1104  1  0.01131783  0.80191850  0.09363767  1
  Li  Li1105  1  0.01131783  0.80191850  0.26030433  1
  Li  Li1106  1  0.01131783  0.80191850  0.42697100  1
  Li  Li1107  1  0.01131783  0.80191850  0.59363767  1
  Li  Li1108  1  0.01131783  0.80191850  0.76030433  1
  Li  Li1109  1  0.01131783  0.80191850  0.92697100  1
  Li  Li1110  1  0.01131783  0.96858517  0.09363767  1
  Li  Li1111  1  0.01131783  0.96858517  0.26030433  1
  Li  Li1112  1  0.01131783  0.96858517  0.42697100  1
  Li  Li1113  1  0.01131783  0.96858517  0.59363767  1
  Li  Li1114  1  0.01131783  0.96858517  0.76030433  1
  Li  Li1115  1  0.01131783  0.96858517  0.92697100  1
  Li  Li1116  1  0.17798450  0.13525183  0.09363767  1
  Li  Li1117  1  0.17798450  0.13525183  0.26030433  1
  Li  Li1118  1  0.17798450  0.13525183  0.42697100  1
  Li  Li1119  1  0.17798450  0.13525183  0.59363767  1
  Li  Li1120  1  0.17798450  0.13525183  0.76030433  1
  Li  Li1121  1  0.17798450  0.13525183  0.92697100  1
  Li  Li1122  1  0.17798450  0.30191850  0.09363767  1
  Li  Li1123  1  0.17798450  0.30191850  0.26030433  1
  Li  Li1124  1  0.17798450  0.30191850  0.42697100  1
  Li  Li1125  1  0.17798450  0.30191850  0.59363767  1
  Li  Li1126  1  0.17798450  0.30191850  0.76030433  1
  Li  Li1127  1  0.17798450  0.30191850  0.92697100  1
  Li  Li1128  1  0.17798450  0.46858517  0.09363767  1
  Li  Li1129  1  0.17798450  0.46858517  0.26030433  1
  Li  Li1130  1  0.17798450  0.46858517  0.42697100  1
  Li  Li1131  1  0.17798450  0.46858517  0.59363767  1
  Li  Li1132  1  0.17798450  0.46858517  0.76030433  1
  Li  Li1133  1  0.17798450  0.46858517  0.92697100  1
  Li  Li1134  1  0.17798450  0.63525183  0.09363767  1
  Li  Li1135  1  0.17798450  0.63525183  0.26030433  1
  Li  Li1136  1  0.17798450  0.63525183  0.42697100  1
  Li  Li1137  1  0.17798450  0.63525183  0.59363767  1
  Li  Li1138  1  0.17798450  0.63525183  0.76030433  1
  Li  Li1139  1  0.17798450  0.63525183  0.92697100  1
  Li  Li1140  1  0.17798450  0.80191850  0.09363767  1
  Li  Li1141  1  0.17798450  0.80191850  0.26030433  1
  Li  Li1142  1  0.17798450  0.80191850  0.42697100  1
  Li  Li1143  1  0.17798450  0.80191850  0.59363767  1
  Li  Li1144  1  0.17798450  0.80191850  0.76030433  1
  Li  Li1145  1  0.17798450  0.80191850  0.92697100  1
  Li  Li1146  1  0.17798450  0.96858517  0.09363767  1
  Li  Li1147  1  0.17798450  0.96858517  0.26030433  1
  Li  Li1148  1  0.17798450  0.96858517  0.42697100  1
  Li  Li1149  1  0.17798450  0.96858517  0.59363767  1
  Li  Li1150  1  0.17798450  0.96858517  0.76030433  1
  Li  Li1151  1  0.17798450  0.96858517  0.92697100  1
  Li  Li1152  1  0.34465117  0.13525183  0.09363767  1
  Li  Li1153  1  0.34465117  0.13525183  0.26030433  1
  Li  Li1154  1  0.34465117  0.13525183  0.42697100  1
  Li  Li1155  1  0.34465117  0.13525183  0.59363767  1
  Li  Li1156  1  0.34465117  0.13525183  0.76030433  1
  Li  Li1157  1  0.34465117  0.13525183  0.92697100  1
  Li  Li1158  1  0.34465117  0.30191850  0.09363767  1
  Li  Li1159  1  0.34465117  0.30191850  0.26030433  1
  Li  Li1160  1  0.34465117  0.30191850  0.42697100  1
  Li  Li1161  1  0.34465117  0.30191850  0.59363767  1
  Li  Li1162  1  0.34465117  0.30191850  0.76030433  1
  Li  Li1163  1  0.34465117  0.30191850  0.92697100  1
  Li  Li1164  1  0.34465117  0.46858517  0.09363767  1
  Li  Li1165  1  0.34465117  0.46858517  0.26030433  1
  Li  Li1166  1  0.34465117  0.46858517  0.42697100  1
  Li  Li1167  1  0.34465117  0.46858517  0.59363767  1
  Li  Li1168  1  0.34465117  0.46858517  0.76030433  1
  Li  Li1169  1  0.34465117  0.46858517  0.92697100  1
  Li  Li1170  1  0.34465117  0.63525183  0.09363767  1
  Li  Li1171  1  0.34465117  0.63525183  0.26030433  1
  Li  Li1172  1  0.34465117  0.63525183  0.42697100  1
  Li  Li1173  1  0.34465117  0.63525183  0.59363767  1
  Li  Li1174  1  0.34465117  0.63525183  0.76030433  1
  Li  Li1175  1  0.34465117  0.63525183  0.92697100  1
  Li  Li1176  1  0.34465117  0.80191850  0.09363767  1
  Li  Li1177  1  0.34465117  0.80191850  0.26030433  1
  Li  Li1178  1  0.34465117  0.80191850  0.42697100  1
  Li  Li1179  1  0.34465117  0.80191850  0.59363767  1
  Li  Li1180  1  0.34465117  0.80191850  0.76030433  1
  Li  Li1181  1  0.34465117  0.80191850  0.92697100  1
  Li  Li1182  1  0.34465117  0.96858517  0.09363767  1
  Li  Li1183  1  0.34465117  0.96858517  0.26030433  1
  Li  Li1184  1  0.34465117  0.96858517  0.42697100  1
  Li  Li1185  1  0.34465117  0.96858517  0.59363767  1
  Li  Li1186  1  0.34465117  0.96858517  0.76030433  1
  Li  Li1187  1  0.34465117  0.96858517  0.92697100  1
  Li  Li1188  1  0.51131783  0.13525183  0.09363767  1
  Li  Li1189  1  0.51131783  0.13525183  0.26030433  1
  Li  Li1190  1  0.51131783  0.13525183  0.42697100  1
  Li  Li1191  1  0.51131783  0.13525183  0.59363767  1
  Li  Li1192  1  0.51131783  0.13525183  0.76030433  1
  Li  Li1193  1  0.51131783  0.13525183  0.92697100  1
  Li  Li1194  1  0.51131783  0.30191850  0.09363767  1
  Li  Li1195  1  0.51131783  0.30191850  0.26030433  1
  Li  Li1196  1  0.51131783  0.30191850  0.42697100  1
  Li  Li1197  1  0.51131783  0.30191850  0.59363767  1
  Li  Li1198  1  0.51131783  0.30191850  0.76030433  1
  Li  Li1199  1  0.51131783  0.30191850  0.92697100  1
  Li  Li1200  1  0.51131783  0.46858517  0.09363767  1
  Li  Li1201  1  0.51131783  0.46858517  0.26030433  1
  Li  Li1202  1  0.51131783  0.46858517  0.42697100  1
  Li  Li1203  1  0.51131783  0.46858517  0.59363767  1
  Li  Li1204  1  0.51131783  0.46858517  0.76030433  1
  Li  Li1205  1  0.51131783  0.46858517  0.92697100  1
  Li  Li1206  1  0.51131783  0.63525183  0.09363767  1
  Li  Li1207  1  0.51131783  0.63525183  0.26030433  1
  Li  Li1208  1  0.51131783  0.63525183  0.42697100  1
  Li  Li1209  1  0.51131783  0.63525183  0.59363767  1
  Li  Li1210  1  0.51131783  0.63525183  0.76030433  1
  Li  Li1211  1  0.51131783  0.63525183  0.92697100  1
  Li  Li1212  1  0.51131783  0.80191850  0.09363767  1
  Li  Li1213  1  0.51131783  0.80191850  0.26030433  1
  Li  Li1214  1  0.51131783  0.80191850  0.42697100  1
  Li  Li1215  1  0.51131783  0.80191850  0.59363767  1
  Li  Li1216  1  0.51131783  0.80191850  0.76030433  1
  Li  Li1217  1  0.51131783  0.80191850  0.92697100  1
  Li  Li1218  1  0.51131783  0.96858517  0.09363767  1
  Li  Li1219  1  0.51131783  0.96858517  0.26030433  1
  Li  Li1220  1  0.51131783  0.96858517  0.42697100  1
  Li  Li1221  1  0.51131783  0.96858517  0.59363767  1
  Li  Li1222  1  0.51131783  0.96858517  0.76030433  1
  Li  Li1223  1  0.51131783  0.96858517  0.92697100  1
  Li  Li1224  1  0.67798450  0.13525183  0.09363767  1
  Li  Li1225  1  0.67798450  0.13525183  0.26030433  1
  Li  Li1226  1  0.67798450  0.13525183  0.42697100  1
  Li  Li1227  1  0.67798450  0.13525183  0.59363767  1
  Li  Li1228  1  0.67798450  0.13525183  0.76030433  1
  Li  Li1229  1  0.67798450  0.13525183  0.92697100  1
  Li  Li1230  1  0.67798450  0.30191850  0.09363767  1
  Li  Li1231  1  0.67798450  0.30191850  0.26030433  1
  Li  Li1232  1  0.67798450  0.30191850  0.42697100  1
  Li  Li1233  1  0.67798450  0.30191850  0.59363767  1
  Li  Li1234  1  0.67798450  0.30191850  0.76030433  1
  Li  Li1235  1  0.67798450  0.30191850  0.92697100  1
  Li  Li1236  1  0.67798450  0.46858517  0.09363767  1
  Li  Li1237  1  0.67798450  0.46858517  0.26030433  1
  Li  Li1238  1  0.67798450  0.46858517  0.42697100  1
  Li  Li1239  1  0.67798450  0.46858517  0.59363767  1
  Li  Li1240  1  0.67798450  0.46858517  0.76030433  1
  Li  Li1241  1  0.67798450  0.46858517  0.92697100  1
  Li  Li1242  1  0.67798450  0.63525183  0.09363767  1
  Li  Li1243  1  0.67798450  0.63525183  0.26030433  1
  Li  Li1244  1  0.67798450  0.63525183  0.42697100  1
  Li  Li1245  1  0.67798450  0.63525183  0.59363767  1
  Li  Li1246  1  0.67798450  0.63525183  0.76030433  1
  Li  Li1247  1  0.67798450  0.63525183  0.92697100  1
  Li  Li1248  1  0.67798450  0.80191850  0.09363767  1
  Li  Li1249  1  0.67798450  0.80191850  0.26030433  1
  Li  Li1250  1  0.67798450  0.80191850  0.42697100  1
  Li  Li1251  1  0.67798450  0.80191850  0.59363767  1
  Li  Li1252  1  0.67798450  0.80191850  0.76030433  1
  Li  Li1253  1  0.67798450  0.80191850  0.92697100  1
  Li  Li1254  1  0.67798450  0.96858517  0.09363767  1
  Li  Li1255  1  0.67798450  0.96858517  0.26030433  1
  Li  Li1256  1  0.67798450  0.96858517  0.42697100  1
  Li  Li1257  1  0.67798450  0.96858517  0.59363767  1
  Li  Li1258  1  0.67798450  0.96858517  0.76030433  1
  Li  Li1259  1  0.67798450  0.96858517  0.92697100  1
  Li  Li1260  1  0.84465117  0.13525183  0.09363767  1
  Li  Li1261  1  0.84465117  0.13525183  0.26030433  1
  Li  Li1262  1  0.84465117  0.13525183  0.42697100  1
  Li  Li1263  1  0.84465117  0.13525183  0.59363767  1
  Li  Li1264  1  0.84465117  0.13525183  0.76030433  1
  Li  Li1265  1  0.84465117  0.13525183  0.92697100  1
  Li  Li1266  1  0.84465117  0.30191850  0.09363767  1
  Li  Li1267  1  0.84465117  0.30191850  0.26030433  1
  Li  Li1268  1  0.84465117  0.30191850  0.42697100  1
  Li  Li1269  1  0.84465117  0.30191850  0.59363767  1
  Li  Li1270  1  0.84465117  0.30191850  0.76030433  1
  Li  Li1271  1  0.84465117  0.30191850  0.92697100  1
  Li  Li1272  1  0.84465117  0.46858517  0.09363767  1
  Li  Li1273  1  0.84465117  0.46858517  0.26030433  1
  Li  Li1274  1  0.84465117  0.46858517  0.42697100  1
  Li  Li1275  1  0.84465117  0.46858517  0.59363767  1
  Li  Li1276  1  0.84465117  0.46858517  0.76030433  1
  Li  Li1277  1  0.84465117  0.46858517  0.92697100  1
  Li  Li1278  1  0.84465117  0.63525183  0.09363767  1
  Li  Li1279  1  0.84465117  0.63525183  0.26030433  1
  Li  Li1280  1  0.84465117  0.63525183  0.42697100  1
  Li  Li1281  1  0.84465117  0.63525183  0.59363767  1
  Li  Li1282  1  0.84465117  0.63525183  0.76030433  1
  Li  Li1283  1  0.84465117  0.63525183  0.92697100  1
  Li  Li1284  1  0.84465117  0.80191850  0.09363767  1
  Li  Li1285  1  0.84465117  0.80191850  0.26030433  1
  Li  Li1286  1  0.84465117  0.80191850  0.42697100  1
  Li  Li1287  1  0.84465117  0.80191850  0.59363767  1
  Li  Li1288  1  0.84465117  0.80191850  0.76030433  1
  Li  Li1289  1  0.84465117  0.80191850  0.92697100  1
  Li  Li1290  1  0.84465117  0.96858517  0.09363767  1
  Li  Li1291  1  0.84465117  0.96858517  0.26030433  1
  Li  Li1292  1  0.84465117  0.96858517  0.42697100  1
  Li  Li1293  1  0.84465117  0.96858517  0.59363767  1
  Li  Li1294  1  0.84465117  0.96858517  0.76030433  1
  Li  Li1295  1  0.84465117  0.96858517  0.92697100  1
  Li  Li1296  1  0.11617217  0.09889767  0.06973750  1
  Li  Li1297  1  0.11617217  0.09889767  0.23640417  1
  Li  Li1298  1  0.11617217  0.09889767  0.40307083  1
  Li  Li1299  1  0.11617217  0.09889767  0.56973750  1
  Li  Li1300  1  0.11617217  0.09889767  0.73640417  1
  Li  Li1301  1  0.11617217  0.09889767  0.90307083  1
  Li  Li1302  1  0.11617217  0.26556433  0.06973750  1
  Li  Li1303  1  0.11617217  0.26556433  0.23640417  1
  Li  Li1304  1  0.11617217  0.26556433  0.40307083  1
  Li  Li1305  1  0.11617217  0.26556433  0.56973750  1
  Li  Li1306  1  0.11617217  0.26556433  0.73640417  1
  Li  Li1307  1  0.11617217  0.26556433  0.90307083  1
  Li  Li1308  1  0.11617217  0.43223100  0.06973750  1
  Li  Li1309  1  0.11617217  0.43223100  0.23640417  1
  Li  Li1310  1  0.11617217  0.43223100  0.40307083  1
  Li  Li1311  1  0.11617217  0.43223100  0.56973750  1
  Li  Li1312  1  0.11617217  0.43223100  0.73640417  1
  Li  Li1313  1  0.11617217  0.43223100  0.90307083  1
  Li  Li1314  1  0.11617217  0.59889767  0.06973750  1
  Li  Li1315  1  0.11617217  0.59889767  0.23640417  1
  Li  Li1316  1  0.11617217  0.59889767  0.40307083  1
  Li  Li1317  1  0.11617217  0.59889767  0.56973750  1
  Li  Li1318  1  0.11617217  0.59889767  0.73640417  1
  Li  Li1319  1  0.11617217  0.59889767  0.90307083  1
  Li  Li1320  1  0.11617217  0.76556433  0.06973750  1
  Li  Li1321  1  0.11617217  0.76556433  0.23640417  1
  Li  Li1322  1  0.11617217  0.76556433  0.40307083  1
  Li  Li1323  1  0.11617217  0.76556433  0.56973750  1
  Li  Li1324  1  0.11617217  0.76556433  0.73640417  1
  Li  Li1325  1  0.11617217  0.76556433  0.90307083  1
  Li  Li1326  1  0.11617217  0.93223100  0.06973750  1
  Li  Li1327  1  0.11617217  0.93223100  0.23640417  1
  Li  Li1328  1  0.11617217  0.93223100  0.40307083  1
  Li  Li1329  1  0.11617217  0.93223100  0.56973750  1
  Li  Li1330  1  0.11617217  0.93223100  0.73640417  1
  Li  Li1331  1  0.11617217  0.93223100  0.90307083  1
  Li  Li1332  1  0.28283883  0.09889767  0.06973750  1
  Li  Li1333  1  0.28283883  0.09889767  0.23640417  1
  Li  Li1334  1  0.28283883  0.09889767  0.40307083  1
  Li  Li1335  1  0.28283883  0.09889767  0.56973750  1
  Li  Li1336  1  0.28283883  0.09889767  0.73640417  1
  Li  Li1337  1  0.28283883  0.09889767  0.90307083  1
  Li  Li1338  1  0.28283883  0.26556433  0.06973750  1
  Li  Li1339  1  0.28283883  0.26556433  0.23640417  1
  Li  Li1340  1  0.28283883  0.26556433  0.40307083  1
  Li  Li1341  1  0.28283883  0.26556433  0.56973750  1
  Li  Li1342  1  0.28283883  0.26556433  0.73640417  1
  Li  Li1343  1  0.28283883  0.26556433  0.90307083  1
  Li  Li1344  1  0.28283883  0.43223100  0.06973750  1
  Li  Li1345  1  0.28283883  0.43223100  0.23640417  1
  Li  Li1346  1  0.28283883  0.43223100  0.40307083  1
  Li  Li1347  1  0.28283883  0.43223100  0.56973750  1
  Li  Li1348  1  0.28283883  0.43223100  0.73640417  1
  Li  Li1349  1  0.28283883  0.43223100  0.90307083  1
  Li  Li1350  1  0.28283883  0.59889767  0.06973750  1
  Li  Li1351  1  0.28283883  0.59889767  0.23640417  1
  Li  Li1352  1  0.28283883  0.59889767  0.40307083  1
  Li  Li1353  1  0.28283883  0.59889767  0.56973750  1
  Li  Li1354  1  0.28283883  0.59889767  0.73640417  1
  Li  Li1355  1  0.28283883  0.59889767  0.90307083  1
  Li  Li1356  1  0.28283883  0.76556433  0.06973750  1
  Li  Li1357  1  0.28283883  0.76556433  0.23640417  1
  Li  Li1358  1  0.28283883  0.76556433  0.40307083  1
  Li  Li1359  1  0.28283883  0.76556433  0.56973750  1
  Li  Li1360  1  0.28283883  0.76556433  0.73640417  1
  Li  Li1361  1  0.28283883  0.76556433  0.90307083  1
  Li  Li1362  1  0.28283883  0.93223100  0.06973750  1
  Li  Li1363  1  0.28283883  0.93223100  0.23640417  1
  Li  Li1364  1  0.28283883  0.93223100  0.40307083  1
  Li  Li1365  1  0.28283883  0.93223100  0.56973750  1
  Li  Li1366  1  0.28283883  0.93223100  0.73640417  1
  Li  Li1367  1  0.28283883  0.93223100  0.90307083  1
  Li  Li1368  1  0.44950550  0.09889767  0.06973750  1
  Li  Li1369  1  0.44950550  0.09889767  0.23640417  1
  Li  Li1370  1  0.44950550  0.09889767  0.40307083  1
  Li  Li1371  1  0.44950550  0.09889767  0.56973750  1
  Li  Li1372  1  0.44950550  0.09889767  0.73640417  1
  Li  Li1373  1  0.44950550  0.09889767  0.90307083  1
  Li  Li1374  1  0.44950550  0.26556433  0.06973750  1
  Li  Li1375  1  0.44950550  0.26556433  0.23640417  1
  Li  Li1376  1  0.44950550  0.26556433  0.40307083  1
  Li  Li1377  1  0.44950550  0.26556433  0.56973750  1
  Li  Li1378  1  0.44950550  0.26556433  0.73640417  1
  Li  Li1379  1  0.44950550  0.26556433  0.90307083  1
  Li  Li1380  1  0.44950550  0.43223100  0.06973750  1
  Li  Li1381  1  0.44950550  0.43223100  0.23640417  1
  Li  Li1382  1  0.44950550  0.43223100  0.40307083  1
  Li  Li1383  1  0.44950550  0.43223100  0.56973750  1
  Li  Li1384  1  0.44950550  0.43223100  0.73640417  1
  Li  Li1385  1  0.44950550  0.43223100  0.90307083  1
  Li  Li1386  1  0.44950550  0.59889767  0.06973750  1
  Li  Li1387  1  0.44950550  0.59889767  0.23640417  1
  Li  Li1388  1  0.44950550  0.59889767  0.40307083  1
  Li  Li1389  1  0.44950550  0.59889767  0.56973750  1
  Li  Li1390  1  0.44950550  0.59889767  0.73640417  1
  Li  Li1391  1  0.44950550  0.59889767  0.90307083  1
  Li  Li1392  1  0.44950550  0.76556433  0.06973750  1
  Li  Li1393  1  0.44950550  0.76556433  0.23640417  1
  Li  Li1394  1  0.44950550  0.76556433  0.40307083  1
  Li  Li1395  1  0.44950550  0.76556433  0.56973750  1
  Li  Li1396  1  0.44950550  0.76556433  0.73640417  1
  Li  Li1397  1  0.44950550  0.76556433  0.90307083  1
  Li  Li1398  1  0.44950550  0.93223100  0.06973750  1
  Li  Li1399  1  0.44950550  0.93223100  0.23640417  1
  Li  Li1400  1  0.44950550  0.93223100  0.40307083  1
  Li  Li1401  1  0.44950550  0.93223100  0.56973750  1
  Li  Li1402  1  0.44950550  0.93223100  0.73640417  1
  Li  Li1403  1  0.44950550  0.93223100  0.90307083  1
  Li  Li1404  1  0.61617217  0.09889767  0.06973750  1
  Li  Li1405  1  0.61617217  0.09889767  0.23640417  1
  Li  Li1406  1  0.61617217  0.09889767  0.40307083  1
  Li  Li1407  1  0.61617217  0.09889767  0.56973750  1
  Li  Li1408  1  0.61617217  0.09889767  0.73640417  1
  Li  Li1409  1  0.61617217  0.09889767  0.90307083  1
  Li  Li1410  1  0.61617217  0.26556433  0.06973750  1
  Li  Li1411  1  0.61617217  0.26556433  0.23640417  1
  Li  Li1412  1  0.61617217  0.26556433  0.40307083  1
  Li  Li1413  1  0.61617217  0.26556433  0.56973750  1
  Li  Li1414  1  0.61617217  0.26556433  0.73640417  1
  Li  Li1415  1  0.61617217  0.26556433  0.90307083  1
  Li  Li1416  1  0.61617217  0.43223100  0.06973750  1
  Li  Li1417  1  0.61617217  0.43223100  0.23640417  1
  Li  Li1418  1  0.61617217  0.43223100  0.40307083  1
  Li  Li1419  1  0.61617217  0.43223100  0.56973750  1
  Li  Li1420  1  0.61617217  0.43223100  0.73640417  1
  Li  Li1421  1  0.61617217  0.43223100  0.90307083  1
  Li  Li1422  1  0.61617217  0.59889767  0.06973750  1
  Li  Li1423  1  0.61617217  0.59889767  0.23640417  1
  Li  Li1424  1  0.61617217  0.59889767  0.40307083  1
  Li  Li1425  1  0.61617217  0.59889767  0.56973750  1
  Li  Li1426  1  0.61617217  0.59889767  0.73640417  1
  Li  Li1427  1  0.61617217  0.59889767  0.90307083  1
  Li  Li1428  1  0.61617217  0.76556433  0.06973750  1
  Li  Li1429  1  0.61617217  0.76556433  0.23640417  1
  Li  Li1430  1  0.61617217  0.76556433  0.40307083  1
  Li  Li1431  1  0.61617217  0.76556433  0.56973750  1
  Li  Li1432  1  0.61617217  0.76556433  0.73640417  1
  Li  Li1433  1  0.61617217  0.76556433  0.90307083  1
  Li  Li1434  1  0.61617217  0.93223100  0.06973750  1
  Li  Li1435  1  0.61617217  0.93223100  0.23640417  1
  Li  Li1436  1  0.61617217  0.93223100  0.40307083  1
  Li  Li1437  1  0.61617217  0.93223100  0.56973750  1
  Li  Li1438  1  0.61617217  0.93223100  0.73640417  1
  Li  Li1439  1  0.61617217  0.93223100  0.90307083  1
  Li  Li1440  1  0.78283883  0.09889767  0.06973750  1
  Li  Li1441  1  0.78283883  0.09889767  0.23640417  1
  Li  Li1442  1  0.78283883  0.09889767  0.40307083  1
  Li  Li1443  1  0.78283883  0.09889767  0.56973750  1
  Li  Li1444  1  0.78283883  0.09889767  0.73640417  1
  Li  Li1445  1  0.78283883  0.09889767  0.90307083  1
  Li  Li1446  1  0.78283883  0.26556433  0.06973750  1
  Li  Li1447  1  0.78283883  0.26556433  0.23640417  1
  Li  Li1448  1  0.78283883  0.26556433  0.40307083  1
  Li  Li1449  1  0.78283883  0.26556433  0.56973750  1
  Li  Li1450  1  0.78283883  0.26556433  0.73640417  1
  Li  Li1451  1  0.78283883  0.26556433  0.90307083  1
  Li  Li1452  1  0.78283883  0.43223100  0.06973750  1
  Li  Li1453  1  0.78283883  0.43223100  0.23640417  1
  Li  Li1454  1  0.78283883  0.43223100  0.40307083  1
  Li  Li1455  1  0.78283883  0.43223100  0.56973750  1
  Li  Li1456  1  0.78283883  0.43223100  0.73640417  1
  Li  Li1457  1  0.78283883  0.43223100  0.90307083  1
  Li  Li1458  1  0.78283883  0.59889767  0.06973750  1
  Li  Li1459  1  0.78283883  0.59889767  0.23640417  1
  Li  Li1460  1  0.78283883  0.59889767  0.40307083  1
  Li  Li1461  1  0.78283883  0.59889767  0.56973750  1
  Li  Li1462  1  0.78283883  0.59889767  0.73640417  1
  Li  Li1463  1  0.78283883  0.59889767  0.90307083  1
  Li  Li1464  1  0.78283883  0.76556433  0.06973750  1
  Li  Li1465  1  0.78283883  0.76556433  0.23640417  1
  Li  Li1466  1  0.78283883  0.76556433  0.40307083  1
  Li  Li1467  1  0.78283883  0.76556433  0.56973750  1
  Li  Li1468  1  0.78283883  0.76556433  0.73640417  1
  Li  Li1469  1  0.78283883  0.76556433  0.90307083  1
  Li  Li1470  1  0.78283883  0.93223100  0.06973750  1
  Li  Li1471  1  0.78283883  0.93223100  0.23640417  1
  Li  Li1472  1  0.78283883  0.93223100  0.40307083  1
  Li  Li1473  1  0.78283883  0.93223100  0.56973750  1
  Li  Li1474  1  0.78283883  0.93223100  0.73640417  1
  Li  Li1475  1  0.78283883  0.93223100  0.90307083  1
  Li  Li1476  1  0.94950550  0.09889767  0.06973750  1
  Li  Li1477  1  0.94950550  0.09889767  0.23640417  1
  Li  Li1478  1  0.94950550  0.09889767  0.40307083  1
  Li  Li1479  1  0.94950550  0.09889767  0.56973750  1
  Li  Li1480  1  0.94950550  0.09889767  0.73640417  1
  Li  Li1481  1  0.94950550  0.09889767  0.90307083  1
  Li  Li1482  1  0.94950550  0.26556433  0.06973750  1
  Li  Li1483  1  0.94950550  0.26556433  0.23640417  1
  Li  Li1484  1  0.94950550  0.26556433  0.40307083  1
  Li  Li1485  1  0.94950550  0.26556433  0.56973750  1
  Li  Li1486  1  0.94950550  0.26556433  0.73640417  1
  Li  Li1487  1  0.94950550  0.26556433  0.90307083  1
  Li  Li1488  1  0.94950550  0.43223100  0.06973750  1
  Li  Li1489  1  0.94950550  0.43223100  0.23640417  1
  Li  Li1490  1  0.94950550  0.43223100  0.40307083  1
  Li  Li1491  1  0.94950550  0.43223100  0.56973750  1
  Li  Li1492  1  0.94950550  0.43223100  0.73640417  1
  Li  Li1493  1  0.94950550  0.43223100  0.90307083  1
  Li  Li1494  1  0.94950550  0.59889767  0.06973750  1
  Li  Li1495  1  0.94950550  0.59889767  0.23640417  1
  Li  Li1496  1  0.94950550  0.59889767  0.40307083  1
  Li  Li1497  1  0.94950550  0.59889767  0.56973750  1
  Li  Li1498  1  0.94950550  0.59889767  0.73640417  1
  Li  Li1499  1  0.94950550  0.59889767  0.90307083  1
  Li  Li1500  1  0.94950550  0.76556433  0.06973750  1
  Li  Li1501  1  0.94950550  0.76556433  0.23640417  1
  Li  Li1502  1  0.94950550  0.76556433  0.40307083  1
  Li  Li1503  1  0.94950550  0.76556433  0.56973750  1
  Li  Li1504  1  0.94950550  0.76556433  0.73640417  1
  Li  Li1505  1  0.94950550  0.76556433  0.90307083  1
  Li  Li1506  1  0.94950550  0.93223100  0.06973750  1
  Li  Li1507  1  0.94950550  0.93223100  0.23640417  1
  Li  Li1508  1  0.94950550  0.93223100  0.40307083  1
  Li  Li1509  1  0.94950550  0.93223100  0.56973750  1
  Li  Li1510  1  0.94950550  0.93223100  0.73640417  1
  Li  Li1511  1  0.94950550  0.93223100  0.90307083  1
  Li  Li1512  1  0.05049450  0.06776900  0.09692917  1
  Li  Li1513  1  0.05049450  0.06776900  0.26359583  1
  Li  Li1514  1  0.05049450  0.06776900  0.43026250  1
  Li  Li1515  1  0.05049450  0.06776900  0.59692917  1
  Li  Li1516  1  0.05049450  0.06776900  0.76359583  1
  Li  Li1517  1  0.05049450  0.06776900  0.93026250  1
  Li  Li1518  1  0.05049450  0.23443567  0.09692917  1
  Li  Li1519  1  0.05049450  0.23443567  0.26359583  1
  Li  Li1520  1  0.05049450  0.23443567  0.43026250  1
  Li  Li1521  1  0.05049450  0.23443567  0.59692917  1
  Li  Li1522  1  0.05049450  0.23443567  0.76359583  1
  Li  Li1523  1  0.05049450  0.23443567  0.93026250  1
  Li  Li1524  1  0.05049450  0.40110233  0.09692917  1
  Li  Li1525  1  0.05049450  0.40110233  0.26359583  1
  Li  Li1526  1  0.05049450  0.40110233  0.43026250  1
  Li  Li1527  1  0.05049450  0.40110233  0.59692917  1
  Li  Li1528  1  0.05049450  0.40110233  0.76359583  1
  Li  Li1529  1  0.05049450  0.40110233  0.93026250  1
  Li  Li1530  1  0.05049450  0.56776900  0.09692917  1
  Li  Li1531  1  0.05049450  0.56776900  0.26359583  1
  Li  Li1532  1  0.05049450  0.56776900  0.43026250  1
  Li  Li1533  1  0.05049450  0.56776900  0.59692917  1
  Li  Li1534  1  0.05049450  0.56776900  0.76359583  1
  Li  Li1535  1  0.05049450  0.56776900  0.93026250  1
  Li  Li1536  1  0.05049450  0.73443567  0.09692917  1
  Li  Li1537  1  0.05049450  0.73443567  0.26359583  1
  Li  Li1538  1  0.05049450  0.73443567  0.43026250  1
  Li  Li1539  1  0.05049450  0.73443567  0.59692917  1
  Li  Li1540  1  0.05049450  0.73443567  0.76359583  1
  Li  Li1541  1  0.05049450  0.73443567  0.93026250  1
  Li  Li1542  1  0.05049450  0.90110233  0.09692917  1
  Li  Li1543  1  0.05049450  0.90110233  0.26359583  1
  Li  Li1544  1  0.05049450  0.90110233  0.43026250  1
  Li  Li1545  1  0.05049450  0.90110233  0.59692917  1
  Li  Li1546  1  0.05049450  0.90110233  0.76359583  1
  Li  Li1547  1  0.05049450  0.90110233  0.93026250  1
  Li  Li1548  1  0.21716117  0.06776900  0.09692917  1
  Li  Li1549  1  0.21716117  0.06776900  0.26359583  1
  Li  Li1550  1  0.21716117  0.06776900  0.43026250  1
  Li  Li1551  1  0.21716117  0.06776900  0.59692917  1
  Li  Li1552  1  0.21716117  0.06776900  0.76359583  1
  Li  Li1553  1  0.21716117  0.06776900  0.93026250  1
  Li  Li1554  1  0.21716117  0.23443567  0.09692917  1
  Li  Li1555  1  0.21716117  0.23443567  0.26359583  1
  Li  Li1556  1  0.21716117  0.23443567  0.43026250  1
  Li  Li1557  1  0.21716117  0.23443567  0.59692917  1
  Li  Li1558  1  0.21716117  0.23443567  0.76359583  1
  Li  Li1559  1  0.21716117  0.23443567  0.93026250  1
  Li  Li1560  1  0.21716117  0.40110233  0.09692917  1
  Li  Li1561  1  0.21716117  0.40110233  0.26359583  1
  Li  Li1562  1  0.21716117  0.40110233  0.43026250  1
  Li  Li1563  1  0.21716117  0.40110233  0.59692917  1
  Li  Li1564  1  0.21716117  0.40110233  0.76359583  1
  Li  Li1565  1  0.21716117  0.40110233  0.93026250  1
  Li  Li1566  1  0.21716117  0.56776900  0.09692917  1
  Li  Li1567  1  0.21716117  0.56776900  0.26359583  1
  Li  Li1568  1  0.21716117  0.56776900  0.43026250  1
  Li  Li1569  1  0.21716117  0.56776900  0.59692917  1
  Li  Li1570  1  0.21716117  0.56776900  0.76359583  1
  Li  Li1571  1  0.21716117  0.56776900  0.93026250  1
  Li  Li1572  1  0.21716117  0.73443567  0.09692917  1
  Li  Li1573  1  0.21716117  0.73443567  0.26359583  1
  Li  Li1574  1  0.21716117  0.73443567  0.43026250  1
  Li  Li1575  1  0.21716117  0.73443567  0.59692917  1
  Li  Li1576  1  0.21716117  0.73443567  0.76359583  1
  Li  Li1577  1  0.21716117  0.73443567  0.93026250  1
  Li  Li1578  1  0.21716117  0.90110233  0.09692917  1
  Li  Li1579  1  0.21716117  0.90110233  0.26359583  1
  Li  Li1580  1  0.21716117  0.90110233  0.43026250  1
  Li  Li1581  1  0.21716117  0.90110233  0.59692917  1
  Li  Li1582  1  0.21716117  0.90110233  0.76359583  1
  Li  Li1583  1  0.21716117  0.90110233  0.93026250  1
  Li  Li1584  1  0.38382783  0.06776900  0.09692917  1
  Li  Li1585  1  0.38382783  0.06776900  0.26359583  1
  Li  Li1586  1  0.38382783  0.06776900  0.43026250  1
  Li  Li1587  1  0.38382783  0.06776900  0.59692917  1
  Li  Li1588  1  0.38382783  0.06776900  0.76359583  1
  Li  Li1589  1  0.38382783  0.06776900  0.93026250  1
  Li  Li1590  1  0.38382783  0.23443567  0.09692917  1
  Li  Li1591  1  0.38382783  0.23443567  0.26359583  1
  Li  Li1592  1  0.38382783  0.23443567  0.43026250  1
  Li  Li1593  1  0.38382783  0.23443567  0.59692917  1
  Li  Li1594  1  0.38382783  0.23443567  0.76359583  1
  Li  Li1595  1  0.38382783  0.23443567  0.93026250  1
  Li  Li1596  1  0.38382783  0.40110233  0.09692917  1
  Li  Li1597  1  0.38382783  0.40110233  0.26359583  1
  Li  Li1598  1  0.38382783  0.40110233  0.43026250  1
  Li  Li1599  1  0.38382783  0.40110233  0.59692917  1
  Li  Li1600  1  0.38382783  0.40110233  0.76359583  1
  Li  Li1601  1  0.38382783  0.40110233  0.93026250  1
  Li  Li1602  1  0.38382783  0.56776900  0.09692917  1
  Li  Li1603  1  0.38382783  0.56776900  0.26359583  1
  Li  Li1604  1  0.38382783  0.56776900  0.43026250  1
  Li  Li1605  1  0.38382783  0.56776900  0.59692917  1
  Li  Li1606  1  0.38382783  0.56776900  0.76359583  1
  Li  Li1607  1  0.38382783  0.56776900  0.93026250  1
  Li  Li1608  1  0.38382783  0.73443567  0.09692917  1
  Li  Li1609  1  0.38382783  0.73443567  0.26359583  1
  Li  Li1610  1  0.38382783  0.73443567  0.43026250  1
  Li  Li1611  1  0.38382783  0.73443567  0.59692917  1
  Li  Li1612  1  0.38382783  0.73443567  0.76359583  1
  Li  Li1613  1  0.38382783  0.73443567  0.93026250  1
  Li  Li1614  1  0.38382783  0.90110233  0.09692917  1
  Li  Li1615  1  0.38382783  0.90110233  0.26359583  1
  Li  Li1616  1  0.38382783  0.90110233  0.43026250  1
  Li  Li1617  1  0.38382783  0.90110233  0.59692917  1
  Li  Li1618  1  0.38382783  0.90110233  0.76359583  1
  Li  Li1619  1  0.38382783  0.90110233  0.93026250  1
  Li  Li1620  1  0.55049450  0.06776900  0.09692917  1
  Li  Li1621  1  0.55049450  0.06776900  0.26359583  1
  Li  Li1622  1  0.55049450  0.06776900  0.43026250  1
  Li  Li1623  1  0.55049450  0.06776900  0.59692917  1
  Li  Li1624  1  0.55049450  0.06776900  0.76359583  1
  Li  Li1625  1  0.55049450  0.06776900  0.93026250  1
  Li  Li1626  1  0.55049450  0.23443567  0.09692917  1
  Li  Li1627  1  0.55049450  0.23443567  0.26359583  1
  Li  Li1628  1  0.55049450  0.23443567  0.43026250  1
  Li  Li1629  1  0.55049450  0.23443567  0.59692917  1
  Li  Li1630  1  0.55049450  0.23443567  0.76359583  1
  Li  Li1631  1  0.55049450  0.23443567  0.93026250  1
  Li  Li1632  1  0.55049450  0.40110233  0.09692917  1
  Li  Li1633  1  0.55049450  0.40110233  0.26359583  1
  Li  Li1634  1  0.55049450  0.40110233  0.43026250  1
  Li  Li1635  1  0.55049450  0.40110233  0.59692917  1
  Li  Li1636  1  0.55049450  0.40110233  0.76359583  1
  Li  Li1637  1  0.55049450  0.40110233  0.93026250  1
  Li  Li1638  1  0.55049450  0.56776900  0.09692917  1
  Li  Li1639  1  0.55049450  0.56776900  0.26359583  1
  Li  Li1640  1  0.55049450  0.56776900  0.43026250  1
  Li  Li1641  1  0.55049450  0.56776900  0.59692917  1
  Li  Li1642  1  0.55049450  0.56776900  0.76359583  1
  Li  Li1643  1  0.55049450  0.56776900  0.93026250  1
  Li  Li1644  1  0.55049450  0.73443567  0.09692917  1
  Li  Li1645  1  0.55049450  0.73443567  0.26359583  1
  Li  Li1646  1  0.55049450  0.73443567  0.43026250  1
  Li  Li1647  1  0.55049450  0.73443567  0.59692917  1
  Li  Li1648  1  0.55049450  0.73443567  0.76359583  1
  Li  Li1649  1  0.55049450  0.73443567  0.93026250  1
  Li  Li1650  1  0.55049450  0.90110233  0.09692917  1
  Li  Li1651  1  0.55049450  0.90110233  0.26359583  1
  Li  Li1652  1  0.55049450  0.90110233  0.43026250  1
  Li  Li1653  1  0.55049450  0.90110233  0.59692917  1
  Li  Li1654  1  0.55049450  0.90110233  0.76359583  1
  Li  Li1655  1  0.55049450  0.90110233  0.93026250  1
  Li  Li1656  1  0.71716117  0.06776900  0.09692917  1
  Li  Li1657  1  0.71716117  0.06776900  0.26359583  1
  Li  Li1658  1  0.71716117  0.06776900  0.43026250  1
  Li  Li1659  1  0.71716117  0.06776900  0.59692917  1
  Li  Li1660  1  0.71716117  0.06776900  0.76359583  1
  Li  Li1661  1  0.71716117  0.06776900  0.93026250  1
  Li  Li1662  1  0.71716117  0.23443567  0.09692917  1
  Li  Li1663  1  0.71716117  0.23443567  0.26359583  1
  Li  Li1664  1  0.71716117  0.23443567  0.43026250  1
  Li  Li1665  1  0.71716117  0.23443567  0.59692917  1
  Li  Li1666  1  0.71716117  0.23443567  0.76359583  1
  Li  Li1667  1  0.71716117  0.23443567  0.93026250  1
  Li  Li1668  1  0.71716117  0.40110233  0.09692917  1
  Li  Li1669  1  0.71716117  0.40110233  0.26359583  1
  Li  Li1670  1  0.71716117  0.40110233  0.43026250  1
  Li  Li1671  1  0.71716117  0.40110233  0.59692917  1
  Li  Li1672  1  0.71716117  0.40110233  0.76359583  1
  Li  Li1673  1  0.71716117  0.40110233  0.93026250  1
  Li  Li1674  1  0.71716117  0.56776900  0.09692917  1
  Li  Li1675  1  0.71716117  0.56776900  0.26359583  1
  Li  Li1676  1  0.71716117  0.56776900  0.43026250  1
  Li  Li1677  1  0.71716117  0.56776900  0.59692917  1
  Li  Li1678  1  0.71716117  0.56776900  0.76359583  1
  Li  Li1679  1  0.71716117  0.56776900  0.93026250  1
  Li  Li1680  1  0.71716117  0.73443567  0.09692917  1
  Li  Li1681  1  0.71716117  0.73443567  0.26359583  1
  Li  Li1682  1  0.71716117  0.73443567  0.43026250  1
  Li  Li1683  1  0.71716117  0.73443567  0.59692917  1
  Li  Li1684  1  0.71716117  0.73443567  0.76359583  1
  Li  Li1685  1  0.71716117  0.73443567  0.93026250  1
  Li  Li1686  1  0.71716117  0.90110233  0.09692917  1
  Li  Li1687  1  0.71716117  0.90110233  0.26359583  1
  Li  Li1688  1  0.71716117  0.90110233  0.43026250  1
  Li  Li1689  1  0.71716117  0.90110233  0.59692917  1
  Li  Li1690  1  0.71716117  0.90110233  0.76359583  1
  Li  Li1691  1  0.71716117  0.90110233  0.93026250  1
  Li  Li1692  1  0.88382783  0.06776900  0.09692917  1
  Li  Li1693  1  0.88382783  0.06776900  0.26359583  1
  Li  Li1694  1  0.88382783  0.06776900  0.43026250  1
  Li  Li1695  1  0.88382783  0.06776900  0.59692917  1
  Li  Li1696  1  0.88382783  0.06776900  0.76359583  1
  Li  Li1697  1  0.88382783  0.06776900  0.93026250  1
  Li  Li1698  1  0.88382783  0.23443567  0.09692917  1
  Li  Li1699  1  0.88382783  0.23443567  0.26359583  1
  Li  Li1700  1  0.88382783  0.23443567  0.43026250  1
  Li  Li1701  1  0.88382783  0.23443567  0.59692917  1
  Li  Li1702  1  0.88382783  0.23443567  0.76359583  1
  Li  Li1703  1  0.88382783  0.23443567  0.93026250  1
  Li  Li1704  1  0.88382783  0.40110233  0.09692917  1
  Li  Li1705  1  0.88382783  0.40110233  0.26359583  1
  Li  Li1706  1  0.88382783  0.40110233  0.43026250  1
  Li  Li1707  1  0.88382783  0.40110233  0.59692917  1
  Li  Li1708  1  0.88382783  0.40110233  0.76359583  1
  Li  Li1709  1  0.88382783  0.40110233  0.93026250  1
  Li  Li1710  1  0.88382783  0.56776900  0.09692917  1
  Li  Li1711  1  0.88382783  0.56776900  0.26359583  1
  Li  Li1712  1  0.88382783  0.56776900  0.43026250  1
  Li  Li1713  1  0.88382783  0.56776900  0.59692917  1
  Li  Li1714  1  0.88382783  0.56776900  0.76359583  1
  Li  Li1715  1  0.88382783  0.56776900  0.93026250  1
  Li  Li1716  1  0.88382783  0.73443567  0.09692917  1
  Li  Li1717  1  0.88382783  0.73443567  0.26359583  1
  Li  Li1718  1  0.88382783  0.73443567  0.43026250  1
  Li  Li1719  1  0.88382783  0.73443567  0.59692917  1
  Li  Li1720  1  0.88382783  0.73443567  0.76359583  1
  Li  Li1721  1  0.88382783  0.73443567  0.93026250  1
  Li  Li1722  1  0.88382783  0.90110233  0.09692917  1
  Li  Li1723  1  0.88382783  0.90110233  0.26359583  1
  Li  Li1724  1  0.88382783  0.90110233  0.43026250  1
  Li  Li1725  1  0.88382783  0.90110233  0.59692917  1
  Li  Li1726  1  0.88382783  0.90110233  0.76359583  1
  Li  Li1727  1  0.88382783  0.90110233  0.93026250  1
  Si  Si1728  1  0.02427167  0.11458867  0.04691833  1
  Si  Si1729  1  0.02427167  0.11458867  0.21358500  1
  Si  Si1730  1  0.02427167  0.11458867  0.38025167  1
  Si  Si1731  1  0.02427167  0.11458867  0.54691833  1
  Si  Si1732  1  0.02427167  0.11458867  0.71358500  1
  Si  Si1733  1  0.02427167  0.11458867  0.88025167  1
  Si  Si1734  1  0.02427167  0.28125533  0.04691833  1
  Si  Si1735  1  0.02427167  0.28125533  0.21358500  1
  Si  Si1736  1  0.02427167  0.28125533  0.38025167  1
  Si  Si1737  1  0.02427167  0.28125533  0.54691833  1
  Si  Si1738  1  0.02427167  0.28125533  0.71358500  1
  Si  Si1739  1  0.02427167  0.28125533  0.88025167  1
  Si  Si1740  1  0.02427167  0.44792200  0.04691833  1
  Si  Si1741  1  0.02427167  0.44792200  0.21358500  1
  Si  Si1742  1  0.02427167  0.44792200  0.38025167  1
  Si  Si1743  1  0.02427167  0.44792200  0.54691833  1
  Si  Si1744  1  0.02427167  0.44792200  0.71358500  1
  Si  Si1745  1  0.02427167  0.44792200  0.88025167  1
  Si  Si1746  1  0.02427167  0.61458867  0.04691833  1
  Si  Si1747  1  0.02427167  0.61458867  0.21358500  1
  Si  Si1748  1  0.02427167  0.61458867  0.38025167  1
  Si  Si1749  1  0.02427167  0.61458867  0.54691833  1
  Si  Si1750  1  0.02427167  0.61458867  0.71358500  1
  Si  Si1751  1  0.02427167  0.61458867  0.88025167  1
  Si  Si1752  1  0.02427167  0.78125533  0.04691833  1
  Si  Si1753  1  0.02427167  0.78125533  0.21358500  1
  Si  Si1754  1  0.02427167  0.78125533  0.38025167  1
  Si  Si1755  1  0.02427167  0.78125533  0.54691833  1
  Si  Si1756  1  0.02427167  0.78125533  0.71358500  1
  Si  Si1757  1  0.02427167  0.78125533  0.88025167  1
  Si  Si1758  1  0.02427167  0.94792200  0.04691833  1
  Si  Si1759  1  0.02427167  0.94792200  0.21358500  1
  Si  Si1760  1  0.02427167  0.94792200  0.38025167  1
  Si  Si1761  1  0.02427167  0.94792200  0.54691833  1
  Si  Si1762  1  0.02427167  0.94792200  0.71358500  1
  Si  Si1763  1  0.02427167  0.94792200  0.88025167  1
  Si  Si1764  1  0.19093833  0.11458867  0.04691833  1
  Si  Si1765  1  0.19093833  0.11458867  0.21358500  1
  Si  Si1766  1  0.19093833  0.11458867  0.38025167  1
  Si  Si1767  1  0.19093833  0.11458867  0.54691833  1
  Si  Si1768  1  0.19093833  0.11458867  0.71358500  1
  Si  Si1769  1  0.19093833  0.11458867  0.88025167  1
  Si  Si1770  1  0.19093833  0.28125533  0.04691833  1
  Si  Si1771  1  0.19093833  0.28125533  0.21358500  1
  Si  Si1772  1  0.19093833  0.28125533  0.38025167  1
  Si  Si1773  1  0.19093833  0.28125533  0.54691833  1
  Si  Si1774  1  0.19093833  0.28125533  0.71358500  1
  Si  Si1775  1  0.19093833  0.28125533  0.88025167  1
  Si  Si1776  1  0.19093833  0.44792200  0.04691833  1
  Si  Si1777  1  0.19093833  0.44792200  0.21358500  1
  Si  Si1778  1  0.19093833  0.44792200  0.38025167  1
  Si  Si1779  1  0.19093833  0.44792200  0.54691833  1
  Si  Si1780  1  0.19093833  0.44792200  0.71358500  1
  Si  Si1781  1  0.19093833  0.44792200  0.88025167  1
  Si  Si1782  1  0.19093833  0.61458867  0.04691833  1
  Si  Si1783  1  0.19093833  0.61458867  0.21358500  1
  Si  Si1784  1  0.19093833  0.61458867  0.38025167  1
  Si  Si1785  1  0.19093833  0.61458867  0.54691833  1
  Si  Si1786  1  0.19093833  0.61458867  0.71358500  1
  Si  Si1787  1  0.19093833  0.61458867  0.88025167  1
  Si  Si1788  1  0.19093833  0.78125533  0.04691833  1
  Si  Si1789  1  0.19093833  0.78125533  0.21358500  1
  Si  Si1790  1  0.19093833  0.78125533  0.38025167  1
  Si  Si1791  1  0.19093833  0.78125533  0.54691833  1
  Si  Si1792  1  0.19093833  0.78125533  0.71358500  1
  Si  Si1793  1  0.19093833  0.78125533  0.88025167  1
  Si  Si1794  1  0.19093833  0.94792200  0.04691833  1
  Si  Si1795  1  0.19093833  0.94792200  0.21358500  1
  Si  Si1796  1  0.19093833  0.94792200  0.38025167  1
  Si  Si1797  1  0.19093833  0.94792200  0.54691833  1
  Si  Si1798  1  0.19093833  0.94792200  0.71358500  1
  Si  Si1799  1  0.19093833  0.94792200  0.88025167  1
  Si  Si1800  1  0.35760500  0.11458867  0.04691833  1
  Si  Si1801  1  0.35760500  0.11458867  0.21358500  1
  Si  Si1802  1  0.35760500  0.11458867  0.38025167  1
  Si  Si1803  1  0.35760500  0.11458867  0.54691833  1
  Si  Si1804  1  0.35760500  0.11458867  0.71358500  1
  Si  Si1805  1  0.35760500  0.11458867  0.88025167  1
  Si  Si1806  1  0.35760500  0.28125533  0.04691833  1
  Si  Si1807  1  0.35760500  0.28125533  0.21358500  1
  Si  Si1808  1  0.35760500  0.28125533  0.38025167  1
  Si  Si1809  1  0.35760500  0.28125533  0.54691833  1
  Si  Si1810  1  0.35760500  0.28125533  0.71358500  1
  Si  Si1811  1  0.35760500  0.28125533  0.88025167  1
  Si  Si1812  1  0.35760500  0.44792200  0.04691833  1
  Si  Si1813  1  0.35760500  0.44792200  0.21358500  1
  Si  Si1814  1  0.35760500  0.44792200  0.38025167  1
  Si  Si1815  1  0.35760500  0.44792200  0.54691833  1
  Si  Si1816  1  0.35760500  0.44792200  0.71358500  1
  Si  Si1817  1  0.35760500  0.44792200  0.88025167  1
  Si  Si1818  1  0.35760500  0.61458867  0.04691833  1
  Si  Si1819  1  0.35760500  0.61458867  0.21358500  1
  Si  Si1820  1  0.35760500  0.61458867  0.38025167  1
  Si  Si1821  1  0.35760500  0.61458867  0.54691833  1
  Si  Si1822  1  0.35760500  0.61458867  0.71358500  1
  Si  Si1823  1  0.35760500  0.61458867  0.88025167  1
  Si  Si1824  1  0.35760500  0.78125533  0.04691833  1
  Si  Si1825  1  0.35760500  0.78125533  0.21358500  1
  Si  Si1826  1  0.35760500  0.78125533  0.38025167  1
  Si  Si1827  1  0.35760500  0.78125533  0.54691833  1
  Si  Si1828  1  0.35760500  0.78125533  0.71358500  1
  Si  Si1829  1  0.35760500  0.78125533  0.88025167  1
  Si  Si1830  1  0.35760500  0.94792200  0.04691833  1
  Si  Si1831  1  0.35760500  0.94792200  0.21358500  1
  Si  Si1832  1  0.35760500  0.94792200  0.38025167  1
  Si  Si1833  1  0.35760500  0.94792200  0.54691833  1
  Si  Si1834  1  0.35760500  0.94792200  0.71358500  1
  Si  Si1835  1  0.35760500  0.94792200  0.88025167  1
  Si  Si1836  1  0.52427167  0.11458867  0.04691833  1
  Si  Si1837  1  0.52427167  0.11458867  0.21358500  1
  Si  Si1838  1  0.52427167  0.11458867  0.38025167  1
  Si  Si1839  1  0.52427167  0.11458867  0.54691833  1
  Si  Si1840  1  0.52427167  0.11458867  0.71358500  1
  Si  Si1841  1  0.52427167  0.11458867  0.88025167  1
  Si  Si1842  1  0.52427167  0.28125533  0.04691833  1
  Si  Si1843  1  0.52427167  0.28125533  0.21358500  1
  Si  Si1844  1  0.52427167  0.28125533  0.38025167  1
  Si  Si1845  1  0.52427167  0.28125533  0.54691833  1
  Si  Si1846  1  0.52427167  0.28125533  0.71358500  1
  Si  Si1847  1  0.52427167  0.28125533  0.88025167  1
  Si  Si1848  1  0.52427167  0.44792200  0.04691833  1
  Si  Si1849  1  0.52427167  0.44792200  0.21358500  1
  Si  Si1850  1  0.52427167  0.44792200  0.38025167  1
  Si  Si1851  1  0.52427167  0.44792200  0.54691833  1
  Si  Si1852  1  0.52427167  0.44792200  0.71358500  1
  Si  Si1853  1  0.52427167  0.44792200  0.88025167  1
  Si  Si1854  1  0.52427167  0.61458867  0.04691833  1
  Si  Si1855  1  0.52427167  0.61458867  0.21358500  1
  Si  Si1856  1  0.52427167  0.61458867  0.38025167  1
  Si  Si1857  1  0.52427167  0.61458867  0.54691833  1
  Si  Si1858  1  0.52427167  0.61458867  0.71358500  1
  Si  Si1859  1  0.52427167  0.61458867  0.88025167  1
  Si  Si1860  1  0.52427167  0.78125533  0.04691833  1
  Si  Si1861  1  0.52427167  0.78125533  0.21358500  1
  Si  Si1862  1  0.52427167  0.78125533  0.38025167  1
  Si  Si1863  1  0.52427167  0.78125533  0.54691833  1
  Si  Si1864  1  0.52427167  0.78125533  0.71358500  1
  Si  Si1865  1  0.52427167  0.78125533  0.88025167  1
  Si  Si1866  1  0.52427167  0.94792200  0.04691833  1
  Si  Si1867  1  0.52427167  0.94792200  0.21358500  1
  Si  Si1868  1  0.52427167  0.94792200  0.38025167  1
  Si  Si1869  1  0.52427167  0.94792200  0.54691833  1
  Si  Si1870  1  0.52427167  0.94792200  0.71358500  1
  Si  Si1871  1  0.52427167  0.94792200  0.88025167  1
  Si  Si1872  1  0.69093833  0.11458867  0.04691833  1
  Si  Si1873  1  0.69093833  0.11458867  0.21358500  1
  Si  Si1874  1  0.69093833  0.11458867  0.38025167  1
  Si  Si1875  1  0.69093833  0.11458867  0.54691833  1
  Si  Si1876  1  0.69093833  0.11458867  0.71358500  1
  Si  Si1877  1  0.69093833  0.11458867  0.88025167  1
  Si  Si1878  1  0.69093833  0.28125533  0.04691833  1
  Si  Si1879  1  0.69093833  0.28125533  0.21358500  1
  Si  Si1880  1  0.69093833  0.28125533  0.38025167  1
  Si  Si1881  1  0.69093833  0.28125533  0.54691833  1
  Si  Si1882  1  0.69093833  0.28125533  0.71358500  1
  Si  Si1883  1  0.69093833  0.28125533  0.88025167  1
  Si  Si1884  1  0.69093833  0.44792200  0.04691833  1
  Si  Si1885  1  0.69093833  0.44792200  0.21358500  1
  Si  Si1886  1  0.69093833  0.44792200  0.38025167  1
  Si  Si1887  1  0.69093833  0.44792200  0.54691833  1
  Si  Si1888  1  0.69093833  0.44792200  0.71358500  1
  Si  Si1889  1  0.69093833  0.44792200  0.88025167  1
  Si  Si1890  1  0.69093833  0.61458867  0.04691833  1
  Si  Si1891  1  0.69093833  0.61458867  0.21358500  1
  Si  Si1892  1  0.69093833  0.61458867  0.38025167  1
  Si  Si1893  1  0.69093833  0.61458867  0.54691833  1
  Si  Si1894  1  0.69093833  0.61458867  0.71358500  1
  Si  Si1895  1  0.69093833  0.61458867  0.88025167  1
  Si  Si1896  1  0.69093833  0.78125533  0.04691833  1
  Si  Si1897  1  0.69093833  0.78125533  0.21358500  1
  Si  Si1898  1  0.69093833  0.78125533  0.38025167  1
  Si  Si1899  1  0.69093833  0.78125533  0.54691833  1
  Si  Si1900  1  0.69093833  0.78125533  0.71358500  1
  Si  Si1901  1  0.69093833  0.78125533  0.88025167  1
  Si  Si1902  1  0.69093833  0.94792200  0.04691833  1
  Si  Si1903  1  0.69093833  0.94792200  0.21358500  1
  Si  Si1904  1  0.69093833  0.94792200  0.38025167  1
  Si  Si1905  1  0.69093833  0.94792200  0.54691833  1
  Si  Si1906  1  0.69093833  0.94792200  0.71358500  1
  Si  Si1907  1  0.69093833  0.94792200  0.88025167  1
  Si  Si1908  1  0.85760500  0.11458867  0.04691833  1
  Si  Si1909  1  0.85760500  0.11458867  0.21358500  1
  Si  Si1910  1  0.85760500  0.11458867  0.38025167  1
  Si  Si1911  1  0.85760500  0.11458867  0.54691833  1
  Si  Si1912  1  0.85760500  0.11458867  0.71358500  1
  Si  Si1913  1  0.85760500  0.11458867  0.88025167  1
  Si  Si1914  1  0.85760500  0.28125533  0.04691833  1
  Si  Si1915  1  0.85760500  0.28125533  0.21358500  1
  Si  Si1916  1  0.85760500  0.28125533  0.38025167  1
  Si  Si1917  1  0.85760500  0.28125533  0.54691833  1
  Si  Si1918  1  0.85760500  0.28125533  0.71358500  1
  Si  Si1919  1  0.85760500  0.28125533  0.88025167  1
  Si  Si1920  1  0.85760500  0.44792200  0.04691833  1
  Si  Si1921  1  0.85760500  0.44792200  0.21358500  1
  Si  Si1922  1  0.85760500  0.44792200  0.38025167  1
  Si  Si1923  1  0.85760500  0.44792200  0.54691833  1
  Si  Si1924  1  0.85760500  0.44792200  0.71358500  1
  Si  Si1925  1  0.85760500  0.44792200  0.88025167  1
  Si  Si1926  1  0.85760500  0.61458867  0.04691833  1
  Si  Si1927  1  0.85760500  0.61458867  0.21358500  1
  Si  Si1928  1  0.85760500  0.61458867  0.38025167  1
  Si  Si1929  1  0.85760500  0.61458867  0.54691833  1
  Si  Si1930  1  0.85760500  0.61458867  0.71358500  1
  Si  Si1931  1  0.85760500  0.61458867  0.88025167  1
  Si  Si1932  1  0.85760500  0.78125533  0.04691833  1
  Si  Si1933  1  0.85760500  0.78125533  0.21358500  1
  Si  Si1934  1  0.85760500  0.78125533  0.38025167  1
  Si  Si1935  1  0.85760500  0.78125533  0.54691833  1
  Si  Si1936  1  0.85760500  0.78125533  0.71358500  1
  Si  Si1937  1  0.85760500  0.78125533  0.88025167  1
  Si  Si1938  1  0.85760500  0.94792200  0.04691833  1
  Si  Si1939  1  0.85760500  0.94792200  0.21358500  1
  Si  Si1940  1  0.85760500  0.94792200  0.38025167  1
  Si  Si1941  1  0.85760500  0.94792200  0.54691833  1
  Si  Si1942  1  0.85760500  0.94792200  0.71358500  1
  Si  Si1943  1  0.85760500  0.94792200  0.88025167  1
  Si  Si1944  1  0.14239500  0.05207800  0.11974833  1
  Si  Si1945  1  0.14239500  0.05207800  0.28641500  1
  Si  Si1946  1  0.14239500  0.05207800  0.45308167  1
  Si  Si1947  1  0.14239500  0.05207800  0.61974833  1
  Si  Si1948  1  0.14239500  0.05207800  0.78641500  1
  Si  Si1949  1  0.14239500  0.05207800  0.95308167  1
  Si  Si1950  1  0.14239500  0.21874467  0.11974833  1
  Si  Si1951  1  0.14239500  0.21874467  0.28641500  1
  Si  Si1952  1  0.14239500  0.21874467  0.45308167  1
  Si  Si1953  1  0.14239500  0.21874467  0.61974833  1
  Si  Si1954  1  0.14239500  0.21874467  0.78641500  1
  Si  Si1955  1  0.14239500  0.21874467  0.95308167  1
  Si  Si1956  1  0.14239500  0.38541133  0.11974833  1
  Si  Si1957  1  0.14239500  0.38541133  0.28641500  1
  Si  Si1958  1  0.14239500  0.38541133  0.45308167  1
  Si  Si1959  1  0.14239500  0.38541133  0.61974833  1
  Si  Si1960  1  0.14239500  0.38541133  0.78641500  1
  Si  Si1961  1  0.14239500  0.38541133  0.95308167  1
  Si  Si1962  1  0.14239500  0.55207800  0.11974833  1
  Si  Si1963  1  0.14239500  0.55207800  0.28641500  1
  Si  Si1964  1  0.14239500  0.55207800  0.45308167  1
  Si  Si1965  1  0.14239500  0.55207800  0.61974833  1
  Si  Si1966  1  0.14239500  0.55207800  0.78641500  1
  Si  Si1967  1  0.14239500  0.55207800  0.95308167  1
  Si  Si1968  1  0.14239500  0.71874467  0.11974833  1
  Si  Si1969  1  0.14239500  0.71874467  0.28641500  1
  Si  Si1970  1  0.14239500  0.71874467  0.45308167  1
  Si  Si1971  1  0.14239500  0.71874467  0.61974833  1
  Si  Si1972  1  0.14239500  0.71874467  0.78641500  1
  Si  Si1973  1  0.14239500  0.71874467  0.95308167  1
  Si  Si1974  1  0.14239500  0.88541133  0.11974833  1
  Si  Si1975  1  0.14239500  0.88541133  0.28641500  1
  Si  Si1976  1  0.14239500  0.88541133  0.45308167  1
  Si  Si1977  1  0.14239500  0.88541133  0.61974833  1
  Si  Si1978  1  0.14239500  0.88541133  0.78641500  1
  Si  Si1979  1  0.14239500  0.88541133  0.95308167  1
  Si  Si1980  1  0.30906167  0.05207800  0.11974833  1
  Si  Si1981  1  0.30906167  0.05207800  0.28641500  1
  Si  Si1982  1  0.30906167  0.05207800  0.45308167  1
  Si  Si1983  1  0.30906167  0.05207800  0.61974833  1
  Si  Si1984  1  0.30906167  0.05207800  0.78641500  1
  Si  Si1985  1  0.30906167  0.05207800  0.95308167  1
  Si  Si1986  1  0.30906167  0.21874467  0.11974833  1
  Si  Si1987  1  0.30906167  0.21874467  0.28641500  1
  Si  Si1988  1  0.30906167  0.21874467  0.45308167  1
  Si  Si1989  1  0.30906167  0.21874467  0.61974833  1
  Si  Si1990  1  0.30906167  0.21874467  0.78641500  1
  Si  Si1991  1  0.30906167  0.21874467  0.95308167  1
  Si  Si1992  1  0.30906167  0.38541133  0.11974833  1
  Si  Si1993  1  0.30906167  0.38541133  0.28641500  1
  Si  Si1994  1  0.30906167  0.38541133  0.45308167  1
  Si  Si1995  1  0.30906167  0.38541133  0.61974833  1
  Si  Si1996  1  0.30906167  0.38541133  0.78641500  1
  Si  Si1997  1  0.30906167  0.38541133  0.95308167  1
  Si  Si1998  1  0.30906167  0.55207800  0.11974833  1
  Si  Si1999  1  0.30906167  0.55207800  0.28641500  1
  Si  Si2000  1  0.30906167  0.55207800  0.45308167  1
  Si  Si2001  1  0.30906167  0.55207800  0.61974833  1
  Si  Si2002  1  0.30906167  0.55207800  0.78641500  1
  Si  Si2003  1  0.30906167  0.55207800  0.95308167  1
  Si  Si2004  1  0.30906167  0.71874467  0.11974833  1
  Si  Si2005  1  0.30906167  0.71874467  0.28641500  1
  Si  Si2006  1  0.30906167  0.71874467  0.45308167  1
  Si  Si2007  1  0.30906167  0.71874467  0.61974833  1
  Si  Si2008  1  0.30906167  0.71874467  0.78641500  1
  Si  Si2009  1  0.30906167  0.71874467  0.95308167  1
  Si  Si2010  1  0.30906167  0.88541133  0.11974833  1
  Si  Si2011  1  0.30906167  0.88541133  0.28641500  1
  Si  Si2012  1  0.30906167  0.88541133  0.45308167  1
  Si  Si2013  1  0.30906167  0.88541133  0.61974833  1
  Si  Si2014  1  0.30906167  0.88541133  0.78641500  1
  Si  Si2015  1  0.30906167  0.88541133  0.95308167  1
  Si  Si2016  1  0.47572833  0.05207800  0.11974833  1
  Si  Si2017  1  0.47572833  0.05207800  0.28641500  1
  Si  Si2018  1  0.47572833  0.05207800  0.45308167  1
  Si  Si2019  1  0.47572833  0.05207800  0.61974833  1
  Si  Si2020  1  0.47572833  0.05207800  0.78641500  1
  Si  Si2021  1  0.47572833  0.05207800  0.95308167  1
  Si  Si2022  1  0.47572833  0.21874467  0.11974833  1
  Si  Si2023  1  0.47572833  0.21874467  0.28641500  1
  Si  Si2024  1  0.47572833  0.21874467  0.45308167  1
  Si  Si2025  1  0.47572833  0.21874467  0.61974833  1
  Si  Si2026  1  0.47572833  0.21874467  0.78641500  1
  Si  Si2027  1  0.47572833  0.21874467  0.95308167  1
  Si  Si2028  1  0.47572833  0.38541133  0.11974833  1
  Si  Si2029  1  0.47572833  0.38541133  0.28641500  1
  Si  Si2030  1  0.47572833  0.38541133  0.45308167  1
  Si  Si2031  1  0.47572833  0.38541133  0.61974833  1
  Si  Si2032  1  0.47572833  0.38541133  0.78641500  1
  Si  Si2033  1  0.47572833  0.38541133  0.95308167  1
  Si  Si2034  1  0.47572833  0.55207800  0.11974833  1
  Si  Si2035  1  0.47572833  0.55207800  0.28641500  1
  Si  Si2036  1  0.47572833  0.55207800  0.45308167  1
  Si  Si2037  1  0.47572833  0.55207800  0.61974833  1
  Si  Si2038  1  0.47572833  0.55207800  0.78641500  1
  Si  Si2039  1  0.47572833  0.55207800  0.95308167  1
  Si  Si2040  1  0.47572833  0.71874467  0.11974833  1
  Si  Si2041  1  0.47572833  0.71874467  0.28641500  1
  Si  Si2042  1  0.47572833  0.71874467  0.45308167  1
  Si  Si2043  1  0.47572833  0.71874467  0.61974833  1
  Si  Si2044  1  0.47572833  0.71874467  0.78641500  1
  Si  Si2045  1  0.47572833  0.71874467  0.95308167  1
  Si  Si2046  1  0.47572833  0.88541133  0.11974833  1
  Si  Si2047  1  0.47572833  0.88541133  0.28641500  1
  Si  Si2048  1  0.47572833  0.88541133  0.45308167  1
  Si  Si2049  1  0.47572833  0.88541133  0.61974833  1
  Si  Si2050  1  0.47572833  0.88541133  0.78641500  1
  Si  Si2051  1  0.47572833  0.88541133  0.95308167  1
  Si  Si2052  1  0.64239500  0.05207800  0.11974833  1
  Si  Si2053  1  0.64239500  0.05207800  0.28641500  1
  Si  Si2054  1  0.64239500  0.05207800  0.45308167  1
  Si  Si2055  1  0.64239500  0.05207800  0.61974833  1
  Si  Si2056  1  0.64239500  0.05207800  0.78641500  1
  Si  Si2057  1  0.64239500  0.05207800  0.95308167  1
  Si  Si2058  1  0.64239500  0.21874467  0.11974833  1
  Si  Si2059  1  0.64239500  0.21874467  0.28641500  1
  Si  Si2060  1  0.64239500  0.21874467  0.45308167  1
  Si  Si2061  1  0.64239500  0.21874467  0.61974833  1
  Si  Si2062  1  0.64239500  0.21874467  0.78641500  1
  Si  Si2063  1  0.64239500  0.21874467  0.95308167  1
  Si  Si2064  1  0.64239500  0.38541133  0.11974833  1
  Si  Si2065  1  0.64239500  0.38541133  0.28641500  1
  Si  Si2066  1  0.64239500  0.38541133  0.45308167  1
  Si  Si2067  1  0.64239500  0.38541133  0.61974833  1
  Si  Si2068  1  0.64239500  0.38541133  0.78641500  1
  Si  Si2069  1  0.64239500  0.38541133  0.95308167  1
  Si  Si2070  1  0.64239500  0.55207800  0.11974833  1
  Si  Si2071  1  0.64239500  0.55207800  0.28641500  1
  Si  Si2072  1  0.64239500  0.55207800  0.45308167  1
  Si  Si2073  1  0.64239500  0.55207800  0.61974833  1
  Si  Si2074  1  0.64239500  0.55207800  0.78641500  1
  Si  Si2075  1  0.64239500  0.55207800  0.95308167  1
  Si  Si2076  1  0.64239500  0.71874467  0.11974833  1
  Si  Si2077  1  0.64239500  0.71874467  0.28641500  1
  Si  Si2078  1  0.64239500  0.71874467  0.45308167  1
  Si  Si2079  1  0.64239500  0.71874467  0.61974833  1
  Si  Si2080  1  0.64239500  0.71874467  0.78641500  1
  Si  Si2081  1  0.64239500  0.71874467  0.95308167  1
  Si  Si2082  1  0.64239500  0.88541133  0.11974833  1
  Si  Si2083  1  0.64239500  0.88541133  0.28641500  1
  Si  Si2084  1  0.64239500  0.88541133  0.45308167  1
  Si  Si2085  1  0.64239500  0.88541133  0.61974833  1
  Si  Si2086  1  0.64239500  0.88541133  0.78641500  1
  Si  Si2087  1  0.64239500  0.88541133  0.95308167  1
  Si  Si2088  1  0.80906167  0.05207800  0.11974833  1
  Si  Si2089  1  0.80906167  0.05207800  0.28641500  1
  Si  Si2090  1  0.80906167  0.05207800  0.45308167  1
  Si  Si2091  1  0.80906167  0.05207800  0.61974833  1
  Si  Si2092  1  0.80906167  0.05207800  0.78641500  1
  Si  Si2093  1  0.80906167  0.05207800  0.95308167  1
  Si  Si2094  1  0.80906167  0.21874467  0.11974833  1
  Si  Si2095  1  0.80906167  0.21874467  0.28641500  1
  Si  Si2096  1  0.80906167  0.21874467  0.45308167  1
  Si  Si2097  1  0.80906167  0.21874467  0.61974833  1
  Si  Si2098  1  0.80906167  0.21874467  0.78641500  1
  Si  Si2099  1  0.80906167  0.21874467  0.95308167  1
  Si  Si2100  1  0.80906167  0.38541133  0.11974833  1
  Si  Si2101  1  0.80906167  0.38541133  0.28641500  1
  Si  Si2102  1  0.80906167  0.38541133  0.45308167  1
  Si  Si2103  1  0.80906167  0.38541133  0.61974833  1
  Si  Si2104  1  0.80906167  0.38541133  0.78641500  1
  Si  Si2105  1  0.80906167  0.38541133  0.95308167  1
  Si  Si2106  1  0.80906167  0.55207800  0.11974833  1
  Si  Si2107  1  0.80906167  0.55207800  0.28641500  1
  Si  Si2108  1  0.80906167  0.55207800  0.45308167  1
  Si  Si2109  1  0.80906167  0.55207800  0.61974833  1
  Si  Si2110  1  0.80906167  0.55207800  0.78641500  1
  Si  Si2111  1  0.80906167  0.55207800  0.95308167  1
  Si  Si2112  1  0.80906167  0.71874467  0.11974833  1
  Si  Si2113  1  0.80906167  0.71874467  0.28641500  1
  Si  Si2114  1  0.80906167  0.71874467  0.45308167  1
  Si  Si2115  1  0.80906167  0.71874467  0.61974833  1
  Si  Si2116  1  0.80906167  0.71874467  0.78641500  1
  Si  Si2117  1  0.80906167  0.71874467  0.95308167  1
  Si  Si2118  1  0.80906167  0.88541133  0.11974833  1
  Si  Si2119  1  0.80906167  0.88541133  0.28641500  1
  Si  Si2120  1  0.80906167  0.88541133  0.45308167  1
  Si  Si2121  1  0.80906167  0.88541133  0.61974833  1
  Si  Si2122  1  0.80906167  0.88541133  0.78641500  1
  Si  Si2123  1  0.80906167  0.88541133  0.95308167  1
  Si  Si2124  1  0.97572833  0.05207800  0.11974833  1
  Si  Si2125  1  0.97572833  0.05207800  0.28641500  1
  Si  Si2126  1  0.97572833  0.05207800  0.45308167  1
  Si  Si2127  1  0.97572833  0.05207800  0.61974833  1
  Si  Si2128  1  0.97572833  0.05207800  0.78641500  1
  Si  Si2129  1  0.97572833  0.05207800  0.95308167  1
  Si  Si2130  1  0.97572833  0.21874467  0.11974833  1
  Si  Si2131  1  0.97572833  0.21874467  0.28641500  1
  Si  Si2132  1  0.97572833  0.21874467  0.45308167  1
  Si  Si2133  1  0.97572833  0.21874467  0.61974833  1
  Si  Si2134  1  0.97572833  0.21874467  0.78641500  1
  Si  Si2135  1  0.97572833  0.21874467  0.95308167  1
  Si  Si2136  1  0.97572833  0.38541133  0.11974833  1
  Si  Si2137  1  0.97572833  0.38541133  0.28641500  1
  Si  Si2138  1  0.97572833  0.38541133  0.45308167  1
  Si  Si2139  1  0.97572833  0.38541133  0.61974833  1
  Si  Si2140  1  0.97572833  0.38541133  0.78641500  1
  Si  Si2141  1  0.97572833  0.38541133  0.95308167  1
  Si  Si2142  1  0.97572833  0.55207800  0.11974833  1
  Si  Si2143  1  0.97572833  0.55207800  0.28641500  1
  Si  Si2144  1  0.97572833  0.55207800  0.45308167  1
  Si  Si2145  1  0.97572833  0.55207800  0.61974833  1
  Si  Si2146  1  0.97572833  0.55207800  0.78641500  1
  Si  Si2147  1  0.97572833  0.55207800  0.95308167  1
  Si  Si2148  1  0.97572833  0.71874467  0.11974833  1
  Si  Si2149  1  0.97572833  0.71874467  0.28641500  1
  Si  Si2150  1  0.97572833  0.71874467  0.45308167  1
  Si  Si2151  1  0.97572833  0.71874467  0.61974833  1
  Si  Si2152  1  0.97572833  0.71874467  0.78641500  1
  Si  Si2153  1  0.97572833  0.71874467  0.95308167  1
  Si  Si2154  1  0.97572833  0.88541133  0.11974833  1
  Si  Si2155  1  0.97572833  0.88541133  0.28641500  1
  Si  Si2156  1  0.97572833  0.88541133  0.45308167  1
  Si  Si2157  1  0.97572833  0.88541133  0.61974833  1
  Si  Si2158  1  0.97572833  0.88541133  0.78641500  1
  Si  Si2159  1  0.97572833  0.88541133  0.95308167  1
  O  O2160  1  0.16643383  0.09296483  0.12000150  1
  O  O2161  1  0.16643383  0.09296483  0.28666817  1
  O  O2162  1  0.16643383  0.09296483  0.45333483  1
  O  O2163  1  0.16643383  0.09296483  0.62000150  1
  O  O2164  1  0.16643383  0.09296483  0.78666817  1
  O  O2165  1  0.16643383  0.09296483  0.95333483  1
  O  O2166  1  0.16643383  0.25963150  0.12000150  1
  O  O2167  1  0.16643383  0.25963150  0.28666817  1
  O  O2168  1  0.16643383  0.25963150  0.45333483  1
  O  O2169  1  0.16643383  0.25963150  0.62000150  1
  O  O2170  1  0.16643383  0.25963150  0.78666817  1
  O  O2171  1  0.16643383  0.25963150  0.95333483  1
  O  O2172  1  0.16643383  0.42629817  0.12000150  1
  O  O2173  1  0.16643383  0.42629817  0.28666817  1
  O  O2174  1  0.16643383  0.42629817  0.45333483  1
  O  O2175  1  0.16643383  0.42629817  0.62000150  1
  O  O2176  1  0.16643383  0.42629817  0.78666817  1
  O  O2177  1  0.16643383  0.42629817  0.95333483  1
  O  O2178  1  0.16643383  0.59296483  0.12000150  1
  O  O2179  1  0.16643383  0.59296483  0.28666817  1
  O  O2180  1  0.16643383  0.59296483  0.45333483  1
  O  O2181  1  0.16643383  0.59296483  0.62000150  1
  O  O2182  1  0.16643383  0.59296483  0.78666817  1
  O  O2183  1  0.16643383  0.59296483  0.95333483  1
  O  O2184  1  0.16643383  0.75963150  0.12000150  1
  O  O2185  1  0.16643383  0.75963150  0.28666817  1
  O  O2186  1  0.16643383  0.75963150  0.45333483  1
  O  O2187  1  0.16643383  0.75963150  0.62000150  1
  O  O2188  1  0.16643383  0.75963150  0.78666817  1
  O  O2189  1  0.16643383  0.75963150  0.95333483  1
  O  O2190  1  0.16643383  0.92629817  0.12000150  1
  O  O2191  1  0.16643383  0.92629817  0.28666817  1
  O  O2192  1  0.16643383  0.92629817  0.45333483  1
  O  O2193  1  0.16643383  0.92629817  0.62000150  1
  O  O2194  1  0.16643383  0.92629817  0.78666817  1
  O  O2195  1  0.16643383  0.92629817  0.95333483  1
  O  O2196  1  0.33310050  0.09296483  0.12000150  1
  O  O2197  1  0.33310050  0.09296483  0.28666817  1
  O  O2198  1  0.33310050  0.09296483  0.45333483  1
  O  O2199  1  0.33310050  0.09296483  0.62000150  1
  O  O2200  1  0.33310050  0.09296483  0.78666817  1
  O  O2201  1  0.33310050  0.09296483  0.95333483  1
  O  O2202  1  0.33310050  0.25963150  0.12000150  1
  O  O2203  1  0.33310050  0.25963150  0.28666817  1
  O  O2204  1  0.33310050  0.25963150  0.45333483  1
  O  O2205  1  0.33310050  0.25963150  0.62000150  1
  O  O2206  1  0.33310050  0.25963150  0.78666817  1
  O  O2207  1  0.33310050  0.25963150  0.95333483  1
  O  O2208  1  0.33310050  0.42629817  0.12000150  1
  O  O2209  1  0.33310050  0.42629817  0.28666817  1
  O  O2210  1  0.33310050  0.42629817  0.45333483  1
  O  O2211  1  0.33310050  0.42629817  0.62000150  1
  O  O2212  1  0.33310050  0.42629817  0.78666817  1
  O  O2213  1  0.33310050  0.42629817  0.95333483  1
  O  O2214  1  0.33310050  0.59296483  0.12000150  1
  O  O2215  1  0.33310050  0.59296483  0.28666817  1
  O  O2216  1  0.33310050  0.59296483  0.45333483  1
  O  O2217  1  0.33310050  0.59296483  0.62000150  1
  O  O2218  1  0.33310050  0.59296483  0.78666817  1
  O  O2219  1  0.33310050  0.59296483  0.95333483  1
  O  O2220  1  0.33310050  0.75963150  0.12000150  1
  O  O2221  1  0.33310050  0.75963150  0.28666817  1
  O  O2222  1  0.33310050  0.75963150  0.45333483  1
  O  O2223  1  0.33310050  0.75963150  0.62000150  1
  O  O2224  1  0.33310050  0.75963150  0.78666817  1
  O  O2225  1  0.33310050  0.75963150  0.95333483  1
  O  O2226  1  0.33310050  0.92629817  0.12000150  1
  O  O2227  1  0.33310050  0.92629817  0.28666817  1
  O  O2228  1  0.33310050  0.92629817  0.45333483  1
  O  O2229  1  0.33310050  0.92629817  0.62000150  1
  O  O2230  1  0.33310050  0.92629817  0.78666817  1
  O  O2231  1  0.33310050  0.92629817  0.95333483  1
  O  O2232  1  0.49976717  0.09296483  0.12000150  1
  O  O2233  1  0.49976717  0.09296483  0.28666817  1
  O  O2234  1  0.49976717  0.09296483  0.45333483  1
  O  O2235  1  0.49976717  0.09296483  0.62000150  1
  O  O2236  1  0.49976717  0.09296483  0.78666817  1
  O  O2237  1  0.49976717  0.09296483  0.95333483  1
  O  O2238  1  0.49976717  0.25963150  0.12000150  1
  O  O2239  1  0.49976717  0.25963150  0.28666817  1
  O  O2240  1  0.49976717  0.25963150  0.45333483  1
  O  O2241  1  0.49976717  0.25963150  0.62000150  1
  O  O2242  1  0.49976717  0.25963150  0.78666817  1
  O  O2243  1  0.49976717  0.25963150  0.95333483  1
  O  O2244  1  0.49976717  0.42629817  0.12000150  1
  O  O2245  1  0.49976717  0.42629817  0.28666817  1
  O  O2246  1  0.49976717  0.42629817  0.45333483  1
  O  O2247  1  0.49976717  0.42629817  0.62000150  1
  O  O2248  1  0.49976717  0.42629817  0.78666817  1
  O  O2249  1  0.49976717  0.42629817  0.95333483  1
  O  O2250  1  0.49976717  0.59296483  0.12000150  1
  O  O2251  1  0.49976717  0.59296483  0.28666817  1
  O  O2252  1  0.49976717  0.59296483  0.45333483  1
  O  O2253  1  0.49976717  0.59296483  0.62000150  1
  O  O2254  1  0.49976717  0.59296483  0.78666817  1
  O  O2255  1  0.49976717  0.59296483  0.95333483  1
  O  O2256  1  0.49976717  0.75963150  0.12000150  1
  O  O2257  1  0.49976717  0.75963150  0.28666817  1
  O  O2258  1  0.49976717  0.75963150  0.45333483  1
  O  O2259  1  0.49976717  0.75963150  0.62000150  1
  O  O2260  1  0.49976717  0.75963150  0.78666817  1
  O  O2261  1  0.49976717  0.75963150  0.95333483  1
  O  O2262  1  0.49976717  0.92629817  0.12000150  1
  O  O2263  1  0.49976717  0.92629817  0.28666817  1
  O  O2264  1  0.49976717  0.92629817  0.45333483  1
  O  O2265  1  0.49976717  0.92629817  0.62000150  1
  O  O2266  1  0.49976717  0.92629817  0.78666817  1
  O  O2267  1  0.49976717  0.92629817  0.95333483  1
  O  O2268  1  0.66643383  0.09296483  0.12000150  1
  O  O2269  1  0.66643383  0.09296483  0.28666817  1
  O  O2270  1  0.66643383  0.09296483  0.45333483  1
  O  O2271  1  0.66643383  0.09296483  0.62000150  1
  O  O2272  1  0.66643383  0.09296483  0.78666817  1
  O  O2273  1  0.66643383  0.09296483  0.95333483  1
  O  O2274  1  0.66643383  0.25963150  0.12000150  1
  O  O2275  1  0.66643383  0.25963150  0.28666817  1
  O  O2276  1  0.66643383  0.25963150  0.45333483  1
  O  O2277  1  0.66643383  0.25963150  0.62000150  1
  O  O2278  1  0.66643383  0.25963150  0.78666817  1
  O  O2279  1  0.66643383  0.25963150  0.95333483  1
  O  O2280  1  0.66643383  0.42629817  0.12000150  1
  O  O2281  1  0.66643383  0.42629817  0.28666817  1
  O  O2282  1  0.66643383  0.42629817  0.45333483  1
  O  O2283  1  0.66643383  0.42629817  0.62000150  1
  O  O2284  1  0.66643383  0.42629817  0.78666817  1
  O  O2285  1  0.66643383  0.42629817  0.95333483  1
  O  O2286  1  0.66643383  0.59296483  0.12000150  1
  O  O2287  1  0.66643383  0.59296483  0.28666817  1
  O  O2288  1  0.66643383  0.59296483  0.45333483  1
  O  O2289  1  0.66643383  0.59296483  0.62000150  1
  O  O2290  1  0.66643383  0.59296483  0.78666817  1
  O  O2291  1  0.66643383  0.59296483  0.95333483  1
  O  O2292  1  0.66643383  0.75963150  0.12000150  1
  O  O2293  1  0.66643383  0.75963150  0.28666817  1
  O  O2294  1  0.66643383  0.75963150  0.45333483  1
  O  O2295  1  0.66643383  0.75963150  0.62000150  1
  O  O2296  1  0.66643383  0.75963150  0.78666817  1
  O  O2297  1  0.66643383  0.75963150  0.95333483  1
  O  O2298  1  0.66643383  0.92629817  0.12000150  1
  O  O2299  1  0.66643383  0.92629817  0.28666817  1
  O  O2300  1  0.66643383  0.92629817  0.45333483  1
  O  O2301  1  0.66643383  0.92629817  0.62000150  1
  O  O2302  1  0.66643383  0.92629817  0.78666817  1
  O  O2303  1  0.66643383  0.92629817  0.95333483  1
  O  O2304  1  0.83310050  0.09296483  0.12000150  1
  O  O2305  1  0.83310050  0.09296483  0.28666817  1
  O  O2306  1  0.83310050  0.09296483  0.45333483  1
  O  O2307  1  0.83310050  0.09296483  0.62000150  1
  O  O2308  1  0.83310050  0.09296483  0.78666817  1
  O  O2309  1  0.83310050  0.09296483  0.95333483  1
  O  O2310  1  0.83310050  0.25963150  0.12000150  1
  O  O2311  1  0.83310050  0.25963150  0.28666817  1
  O  O2312  1  0.83310050  0.25963150  0.45333483  1
  O  O2313  1  0.83310050  0.25963150  0.62000150  1
  O  O2314  1  0.83310050  0.25963150  0.78666817  1
  O  O2315  1  0.83310050  0.25963150  0.95333483  1
  O  O2316  1  0.83310050  0.42629817  0.12000150  1
  O  O2317  1  0.83310050  0.42629817  0.28666817  1
  O  O2318  1  0.83310050  0.42629817  0.45333483  1
  O  O2319  1  0.83310050  0.42629817  0.62000150  1
  O  O2320  1  0.83310050  0.42629817  0.78666817  1
  O  O2321  1  0.83310050  0.42629817  0.95333483  1
  O  O2322  1  0.83310050  0.59296483  0.12000150  1
  O  O2323  1  0.83310050  0.59296483  0.28666817  1
  O  O2324  1  0.83310050  0.59296483  0.45333483  1
  O  O2325  1  0.83310050  0.59296483  0.62000150  1
  O  O2326  1  0.83310050  0.59296483  0.78666817  1
  O  O2327  1  0.83310050  0.59296483  0.95333483  1
  O  O2328  1  0.83310050  0.75963150  0.12000150  1
  O  O2329  1  0.83310050  0.75963150  0.28666817  1
  O  O2330  1  0.83310050  0.75963150  0.45333483  1
  O  O2331  1  0.83310050  0.75963150  0.62000150  1
  O  O2332  1  0.83310050  0.75963150  0.78666817  1
  O  O2333  1  0.83310050  0.75963150  0.95333483  1
  O  O2334  1  0.83310050  0.92629817  0.12000150  1
  O  O2335  1  0.83310050  0.92629817  0.28666817  1
  O  O2336  1  0.83310050  0.92629817  0.45333483  1
  O  O2337  1  0.83310050  0.92629817  0.62000150  1
  O  O2338  1  0.83310050  0.92629817  0.78666817  1
  O  O2339  1  0.83310050  0.92629817  0.95333483  1
  O  O2340  1  0.99976717  0.09296483  0.12000150  1
  O  O2341  1  0.99976717  0.09296483  0.28666817  1
  O  O2342  1  0.99976717  0.09296483  0.45333483  1
  O  O2343  1  0.99976717  0.09296483  0.62000150  1
  O  O2344  1  0.99976717  0.09296483  0.78666817  1
  O  O2345  1  0.99976717  0.09296483  0.95333483  1
  O  O2346  1  0.99976717  0.25963150  0.12000150  1
  O  O2347  1  0.99976717  0.25963150  0.28666817  1
  O  O2348  1  0.99976717  0.25963150  0.45333483  1
  O  O2349  1  0.99976717  0.25963150  0.62000150  1
  O  O2350  1  0.99976717  0.25963150  0.78666817  1
  O  O2351  1  0.99976717  0.25963150  0.95333483  1
  O  O2352  1  0.99976717  0.42629817  0.12000150  1
  O  O2353  1  0.99976717  0.42629817  0.28666817  1
  O  O2354  1  0.99976717  0.42629817  0.45333483  1
  O  O2355  1  0.99976717  0.42629817  0.62000150  1
  O  O2356  1  0.99976717  0.42629817  0.78666817  1
  O  O2357  1  0.99976717  0.42629817  0.95333483  1
  O  O2358  1  0.99976717  0.59296483  0.12000150  1
  O  O2359  1  0.99976717  0.59296483  0.28666817  1
  O  O2360  1  0.99976717  0.59296483  0.45333483  1
  O  O2361  1  0.99976717  0.59296483  0.62000150  1
  O  O2362  1  0.99976717  0.59296483  0.78666817  1
  O  O2363  1  0.99976717  0.59296483  0.95333483  1
  O  O2364  1  0.99976717  0.75963150  0.12000150  1
  O  O2365  1  0.99976717  0.75963150  0.28666817  1
  O  O2366  1  0.99976717  0.75963150  0.45333483  1
  O  O2367  1  0.99976717  0.75963150  0.62000150  1
  O  O2368  1  0.99976717  0.75963150  0.78666817  1
  O  O2369  1  0.99976717  0.75963150  0.95333483  1
  O  O2370  1  0.99976717  0.92629817  0.12000150  1
  O  O2371  1  0.99976717  0.92629817  0.28666817  1
  O  O2372  1  0.99976717  0.92629817  0.45333483  1
  O  O2373  1  0.99976717  0.92629817  0.62000150  1
  O  O2374  1  0.99976717  0.92629817  0.78666817  1
  O  O2375  1  0.99976717  0.92629817  0.95333483  1
  O  O2376  1  0.00023283  0.07370183  0.04666517  1
  O  O2377  1  0.00023283  0.07370183  0.21333183  1
  O  O2378  1  0.00023283  0.07370183  0.37999850  1
  O  O2379  1  0.00023283  0.07370183  0.54666517  1
  O  O2380  1  0.00023283  0.07370183  0.71333183  1
  O  O2381  1  0.00023283  0.07370183  0.87999850  1
  O  O2382  1  0.00023283  0.24036850  0.04666517  1
  O  O2383  1  0.00023283  0.24036850  0.21333183  1
  O  O2384  1  0.00023283  0.24036850  0.37999850  1
  O  O2385  1  0.00023283  0.24036850  0.54666517  1
  O  O2386  1  0.00023283  0.24036850  0.71333183  1
  O  O2387  1  0.00023283  0.24036850  0.87999850  1
  O  O2388  1  0.00023283  0.40703517  0.04666517  1
  O  O2389  1  0.00023283  0.40703517  0.21333183  1
  O  O2390  1  0.00023283  0.40703517  0.37999850  1
  O  O2391  1  0.00023283  0.40703517  0.54666517  1
  O  O2392  1  0.00023283  0.40703517  0.71333183  1
  O  O2393  1  0.00023283  0.40703517  0.87999850  1
  O  O2394  1  0.00023283  0.57370183  0.04666517  1
  O  O2395  1  0.00023283  0.57370183  0.21333183  1
  O  O2396  1  0.00023283  0.57370183  0.37999850  1
  O  O2397  1  0.00023283  0.57370183  0.54666517  1
  O  O2398  1  0.00023283  0.57370183  0.71333183  1
  O  O2399  1  0.00023283  0.57370183  0.87999850  1
  O  O2400  1  0.00023283  0.74036850  0.04666517  1
  O  O2401  1  0.00023283  0.74036850  0.21333183  1
  O  O2402  1  0.00023283  0.74036850  0.37999850  1
  O  O2403  1  0.00023283  0.74036850  0.54666517  1
  O  O2404  1  0.00023283  0.74036850  0.71333183  1
  O  O2405  1  0.00023283  0.74036850  0.87999850  1
  O  O2406  1  0.00023283  0.90703517  0.04666517  1
  O  O2407  1  0.00023283  0.90703517  0.21333183  1
  O  O2408  1  0.00023283  0.90703517  0.37999850  1
  O  O2409  1  0.00023283  0.90703517  0.54666517  1
  O  O2410  1  0.00023283  0.90703517  0.71333183  1
  O  O2411  1  0.00023283  0.90703517  0.87999850  1
  O  O2412  1  0.16689950  0.07370183  0.04666517  1
  O  O2413  1  0.16689950  0.07370183  0.21333183  1
  O  O2414  1  0.16689950  0.07370183  0.37999850  1
  O  O2415  1  0.16689950  0.07370183  0.54666517  1
  O  O2416  1  0.16689950  0.07370183  0.71333183  1
  O  O2417  1  0.16689950  0.07370183  0.87999850  1
  O  O2418  1  0.16689950  0.24036850  0.04666517  1
  O  O2419  1  0.16689950  0.24036850  0.21333183  1
  O  O2420  1  0.16689950  0.24036850  0.37999850  1
  O  O2421  1  0.16689950  0.24036850  0.54666517  1
  O  O2422  1  0.16689950  0.24036850  0.71333183  1
  O  O2423  1  0.16689950  0.24036850  0.87999850  1
  O  O2424  1  0.16689950  0.40703517  0.04666517  1
  O  O2425  1  0.16689950  0.40703517  0.21333183  1
  O  O2426  1  0.16689950  0.40703517  0.37999850  1
  O  O2427  1  0.16689950  0.40703517  0.54666517  1
  O  O2428  1  0.16689950  0.40703517  0.71333183  1
  O  O2429  1  0.16689950  0.40703517  0.87999850  1
  O  O2430  1  0.16689950  0.57370183  0.04666517  1
  O  O2431  1  0.16689950  0.57370183  0.21333183  1
  O  O2432  1  0.16689950  0.57370183  0.37999850  1
  O  O2433  1  0.16689950  0.57370183  0.54666517  1
  O  O2434  1  0.16689950  0.57370183  0.71333183  1
  O  O2435  1  0.16689950  0.57370183  0.87999850  1
  O  O2436  1  0.16689950  0.74036850  0.04666517  1
  O  O2437  1  0.16689950  0.74036850  0.21333183  1
  O  O2438  1  0.16689950  0.74036850  0.37999850  1
  O  O2439  1  0.16689950  0.74036850  0.54666517  1
  O  O2440  1  0.16689950  0.74036850  0.71333183  1
  O  O2441  1  0.16689950  0.74036850  0.87999850  1
  O  O2442  1  0.16689950  0.90703517  0.04666517  1
  O  O2443  1  0.16689950  0.90703517  0.21333183  1
  O  O2444  1  0.16689950  0.90703517  0.37999850  1
  O  O2445  1  0.16689950  0.90703517  0.54666517  1
  O  O2446  1  0.16689950  0.90703517  0.71333183  1
  O  O2447  1  0.16689950  0.90703517  0.87999850  1
  O  O2448  1  0.33356617  0.07370183  0.04666517  1
  O  O2449  1  0.33356617  0.07370183  0.21333183  1
  O  O2450  1  0.33356617  0.07370183  0.37999850  1
  O  O2451  1  0.33356617  0.07370183  0.54666517  1
  O  O2452  1  0.33356617  0.07370183  0.71333183  1
  O  O2453  1  0.33356617  0.07370183  0.87999850  1
  O  O2454  1  0.33356617  0.24036850  0.04666517  1
  O  O2455  1  0.33356617  0.24036850  0.21333183  1
  O  O2456  1  0.33356617  0.24036850  0.37999850  1
  O  O2457  1  0.33356617  0.24036850  0.54666517  1
  O  O2458  1  0.33356617  0.24036850  0.71333183  1
  O  O2459  1  0.33356617  0.24036850  0.87999850  1
  O  O2460  1  0.33356617  0.40703517  0.04666517  1
  O  O2461  1  0.33356617  0.40703517  0.21333183  1
  O  O2462  1  0.33356617  0.40703517  0.37999850  1
  O  O2463  1  0.33356617  0.40703517  0.54666517  1
  O  O2464  1  0.33356617  0.40703517  0.71333183  1
  O  O2465  1  0.33356617  0.40703517  0.87999850  1
  O  O2466  1  0.33356617  0.57370183  0.04666517  1
  O  O2467  1  0.33356617  0.57370183  0.21333183  1
  O  O2468  1  0.33356617  0.57370183  0.37999850  1
  O  O2469  1  0.33356617  0.57370183  0.54666517  1
  O  O2470  1  0.33356617  0.57370183  0.71333183  1
  O  O2471  1  0.33356617  0.57370183  0.87999850  1
  O  O2472  1  0.33356617  0.74036850  0.04666517  1
  O  O2473  1  0.33356617  0.74036850  0.21333183  1
  O  O2474  1  0.33356617  0.74036850  0.37999850  1
  O  O2475  1  0.33356617  0.74036850  0.54666517  1
  O  O2476  1  0.33356617  0.74036850  0.71333183  1
  O  O2477  1  0.33356617  0.74036850  0.87999850  1
  O  O2478  1  0.33356617  0.90703517  0.04666517  1
  O  O2479  1  0.33356617  0.90703517  0.21333183  1
  O  O2480  1  0.33356617  0.90703517  0.37999850  1
  O  O2481  1  0.33356617  0.90703517  0.54666517  1
  O  O2482  1  0.33356617  0.90703517  0.71333183  1
  O  O2483  1  0.33356617  0.90703517  0.87999850  1
  O  O2484  1  0.50023283  0.07370183  0.04666517  1
  O  O2485  1  0.50023283  0.07370183  0.21333183  1
  O  O2486  1  0.50023283  0.07370183  0.37999850  1
  O  O2487  1  0.50023283  0.07370183  0.54666517  1
  O  O2488  1  0.50023283  0.07370183  0.71333183  1
  O  O2489  1  0.50023283  0.07370183  0.87999850  1
  O  O2490  1  0.50023283  0.24036850  0.04666517  1
  O  O2491  1  0.50023283  0.24036850  0.21333183  1
  O  O2492  1  0.50023283  0.24036850  0.37999850  1
  O  O2493  1  0.50023283  0.24036850  0.54666517  1
  O  O2494  1  0.50023283  0.24036850  0.71333183  1
  O  O2495  1  0.50023283  0.24036850  0.87999850  1
  O  O2496  1  0.50023283  0.40703517  0.04666517  1
  O  O2497  1  0.50023283  0.40703517  0.21333183  1
  O  O2498  1  0.50023283  0.40703517  0.37999850  1
  O  O2499  1  0.50023283  0.40703517  0.54666517  1
  O  O2500  1  0.50023283  0.40703517  0.71333183  1
  O  O2501  1  0.50023283  0.40703517  0.87999850  1
  O  O2502  1  0.50023283  0.57370183  0.04666517  1
  O  O2503  1  0.50023283  0.57370183  0.21333183  1
  O  O2504  1  0.50023283  0.57370183  0.37999850  1
  O  O2505  1  0.50023283  0.57370183  0.54666517  1
  O  O2506  1  0.50023283  0.57370183  0.71333183  1
  O  O2507  1  0.50023283  0.57370183  0.87999850  1
  O  O2508  1  0.50023283  0.74036850  0.04666517  1
  O  O2509  1  0.50023283  0.74036850  0.21333183  1
  O  O2510  1  0.50023283  0.74036850  0.37999850  1
  O  O2511  1  0.50023283  0.74036850  0.54666517  1
  O  O2512  1  0.50023283  0.74036850  0.71333183  1
  O  O2513  1  0.50023283  0.74036850  0.87999850  1
  O  O2514  1  0.50023283  0.90703517  0.04666517  1
  O  O2515  1  0.50023283  0.90703517  0.21333183  1
  O  O2516  1  0.50023283  0.90703517  0.37999850  1
  O  O2517  1  0.50023283  0.90703517  0.54666517  1
  O  O2518  1  0.50023283  0.90703517  0.71333183  1
  O  O2519  1  0.50023283  0.90703517  0.87999850  1
  O  O2520  1  0.66689950  0.07370183  0.04666517  1
  O  O2521  1  0.66689950  0.07370183  0.21333183  1
  O  O2522  1  0.66689950  0.07370183  0.37999850  1
  O  O2523  1  0.66689950  0.07370183  0.54666517  1
  O  O2524  1  0.66689950  0.07370183  0.71333183  1
  O  O2525  1  0.66689950  0.07370183  0.87999850  1
  O  O2526  1  0.66689950  0.24036850  0.04666517  1
  O  O2527  1  0.66689950  0.24036850  0.21333183  1
  O  O2528  1  0.66689950  0.24036850  0.37999850  1
  O  O2529  1  0.66689950  0.24036850  0.54666517  1
  O  O2530  1  0.66689950  0.24036850  0.71333183  1
  O  O2531  1  0.66689950  0.24036850  0.87999850  1
  O  O2532  1  0.66689950  0.40703517  0.04666517  1
  O  O2533  1  0.66689950  0.40703517  0.21333183  1
  O  O2534  1  0.66689950  0.40703517  0.37999850  1
  O  O2535  1  0.66689950  0.40703517  0.54666517  1
  O  O2536  1  0.66689950  0.40703517  0.71333183  1
  O  O2537  1  0.66689950  0.40703517  0.87999850  1
  O  O2538  1  0.66689950  0.57370183  0.04666517  1
  O  O2539  1  0.66689950  0.57370183  0.21333183  1
  O  O2540  1  0.66689950  0.57370183  0.37999850  1
  O  O2541  1  0.66689950  0.57370183  0.54666517  1
  O  O2542  1  0.66689950  0.57370183  0.71333183  1
  O  O2543  1  0.66689950  0.57370183  0.87999850  1
  O  O2544  1  0.66689950  0.74036850  0.04666517  1
  O  O2545  1  0.66689950  0.74036850  0.21333183  1
  O  O2546  1  0.66689950  0.74036850  0.37999850  1
  O  O2547  1  0.66689950  0.74036850  0.54666517  1
  O  O2548  1  0.66689950  0.74036850  0.71333183  1
  O  O2549  1  0.66689950  0.74036850  0.87999850  1
  O  O2550  1  0.66689950  0.90703517  0.04666517  1
  O  O2551  1  0.66689950  0.90703517  0.21333183  1
  O  O2552  1  0.66689950  0.90703517  0.37999850  1
  O  O2553  1  0.66689950  0.90703517  0.54666517  1
  O  O2554  1  0.66689950  0.90703517  0.71333183  1
  O  O2555  1  0.66689950  0.90703517  0.87999850  1
  O  O2556  1  0.83356617  0.07370183  0.04666517  1
  O  O2557  1  0.83356617  0.07370183  0.21333183  1
  O  O2558  1  0.83356617  0.07370183  0.37999850  1
  O  O2559  1  0.83356617  0.07370183  0.54666517  1
  O  O2560  1  0.83356617  0.07370183  0.71333183  1
  O  O2561  1  0.83356617  0.07370183  0.87999850  1
  O  O2562  1  0.83356617  0.24036850  0.04666517  1
  O  O2563  1  0.83356617  0.24036850  0.21333183  1
  O  O2564  1  0.83356617  0.24036850  0.37999850  1
  O  O2565  1  0.83356617  0.24036850  0.54666517  1
  O  O2566  1  0.83356617  0.24036850  0.71333183  1
  O  O2567  1  0.83356617  0.24036850  0.87999850  1
  O  O2568  1  0.83356617  0.40703517  0.04666517  1
  O  O2569  1  0.83356617  0.40703517  0.21333183  1
  O  O2570  1  0.83356617  0.40703517  0.37999850  1
  O  O2571  1  0.83356617  0.40703517  0.54666517  1
  O  O2572  1  0.83356617  0.40703517  0.71333183  1
  O  O2573  1  0.83356617  0.40703517  0.87999850  1
  O  O2574  1  0.83356617  0.57370183  0.04666517  1
  O  O2575  1  0.83356617  0.57370183  0.21333183  1
  O  O2576  1  0.83356617  0.57370183  0.37999850  1
  O  O2577  1  0.83356617  0.57370183  0.54666517  1
  O  O2578  1  0.83356617  0.57370183  0.71333183  1
  O  O2579  1  0.83356617  0.57370183  0.87999850  1
  O  O2580  1  0.83356617  0.74036850  0.04666517  1
  O  O2581  1  0.83356617  0.74036850  0.21333183  1
  O  O2582  1  0.83356617  0.74036850  0.37999850  1
  O  O2583  1  0.83356617  0.74036850  0.54666517  1
  O  O2584  1  0.83356617  0.74036850  0.71333183  1
  O  O2585  1  0.83356617  0.74036850  0.87999850  1
  O  O2586  1  0.83356617  0.90703517  0.04666517  1
  O  O2587  1  0.83356617  0.90703517  0.21333183  1
  O  O2588  1  0.83356617  0.90703517  0.37999850  1
  O  O2589  1  0.83356617  0.90703517  0.54666517  1
  O  O2590  1  0.83356617  0.90703517  0.71333183  1
  O  O2591  1  0.83356617  0.90703517  0.87999850  1
  O  O2592  1  0.15307250  0.14451433  0.06347517  1
  O  O2593  1  0.15307250  0.14451433  0.23014183  1
  O  O2594  1  0.15307250  0.14451433  0.39680850  1
  O  O2595  1  0.15307250  0.14451433  0.56347517  1
  O  O2596  1  0.15307250  0.14451433  0.73014183  1
  O  O2597  1  0.15307250  0.14451433  0.89680850  1
  O  O2598  1  0.15307250  0.31118100  0.06347517  1
  O  O2599  1  0.15307250  0.31118100  0.23014183  1
  O  O2600  1  0.15307250  0.31118100  0.39680850  1
  O  O2601  1  0.15307250  0.31118100  0.56347517  1
  O  O2602  1  0.15307250  0.31118100  0.73014183  1
  O  O2603  1  0.15307250  0.31118100  0.89680850  1
  O  O2604  1  0.15307250  0.47784767  0.06347517  1
  O  O2605  1  0.15307250  0.47784767  0.23014183  1
  O  O2606  1  0.15307250  0.47784767  0.39680850  1
  O  O2607  1  0.15307250  0.47784767  0.56347517  1
  O  O2608  1  0.15307250  0.47784767  0.73014183  1
  O  O2609  1  0.15307250  0.47784767  0.89680850  1
  O  O2610  1  0.15307250  0.64451433  0.06347517  1
  O  O2611  1  0.15307250  0.64451433  0.23014183  1
  O  O2612  1  0.15307250  0.64451433  0.39680850  1
  O  O2613  1  0.15307250  0.64451433  0.56347517  1
  O  O2614  1  0.15307250  0.64451433  0.73014183  1
  O  O2615  1  0.15307250  0.64451433  0.89680850  1
  O  O2616  1  0.15307250  0.81118100  0.06347517  1
  O  O2617  1  0.15307250  0.81118100  0.23014183  1
  O  O2618  1  0.15307250  0.81118100  0.39680850  1
  O  O2619  1  0.15307250  0.81118100  0.56347517  1
  O  O2620  1  0.15307250  0.81118100  0.73014183  1
  O  O2621  1  0.15307250  0.81118100  0.89680850  1
  O  O2622  1  0.15307250  0.97784767  0.06347517  1
  O  O2623  1  0.15307250  0.97784767  0.23014183  1
  O  O2624  1  0.15307250  0.97784767  0.39680850  1
  O  O2625  1  0.15307250  0.97784767  0.56347517  1
  O  O2626  1  0.15307250  0.97784767  0.73014183  1
  O  O2627  1  0.15307250  0.97784767  0.89680850  1
  O  O2628  1  0.31973917  0.14451433  0.06347517  1
  O  O2629  1  0.31973917  0.14451433  0.23014183  1
  O  O2630  1  0.31973917  0.14451433  0.39680850  1
  O  O2631  1  0.31973917  0.14451433  0.56347517  1
  O  O2632  1  0.31973917  0.14451433  0.73014183  1
  O  O2633  1  0.31973917  0.14451433  0.89680850  1
  O  O2634  1  0.31973917  0.31118100  0.06347517  1
  O  O2635  1  0.31973917  0.31118100  0.23014183  1
  O  O2636  1  0.31973917  0.31118100  0.39680850  1
  O  O2637  1  0.31973917  0.31118100  0.56347517  1
  O  O2638  1  0.31973917  0.31118100  0.73014183  1
  O  O2639  1  0.31973917  0.31118100  0.89680850  1
  O  O2640  1  0.31973917  0.47784767  0.06347517  1
  O  O2641  1  0.31973917  0.47784767  0.23014183  1
  O  O2642  1  0.31973917  0.47784767  0.39680850  1
  O  O2643  1  0.31973917  0.47784767  0.56347517  1
  O  O2644  1  0.31973917  0.47784767  0.73014183  1
  O  O2645  1  0.31973917  0.47784767  0.89680850  1
  O  O2646  1  0.31973917  0.64451433  0.06347517  1
  O  O2647  1  0.31973917  0.64451433  0.23014183  1
  O  O2648  1  0.31973917  0.64451433  0.39680850  1
  O  O2649  1  0.31973917  0.64451433  0.56347517  1
  O  O2650  1  0.31973917  0.64451433  0.73014183  1
  O  O2651  1  0.31973917  0.64451433  0.89680850  1
  O  O2652  1  0.31973917  0.81118100  0.06347517  1
  O  O2653  1  0.31973917  0.81118100  0.23014183  1
  O  O2654  1  0.31973917  0.81118100  0.39680850  1
  O  O2655  1  0.31973917  0.81118100  0.56347517  1
  O  O2656  1  0.31973917  0.81118100  0.73014183  1
  O  O2657  1  0.31973917  0.81118100  0.89680850  1
  O  O2658  1  0.31973917  0.97784767  0.06347517  1
  O  O2659  1  0.31973917  0.97784767  0.23014183  1
  O  O2660  1  0.31973917  0.97784767  0.39680850  1
  O  O2661  1  0.31973917  0.97784767  0.56347517  1
  O  O2662  1  0.31973917  0.97784767  0.73014183  1
  O  O2663  1  0.31973917  0.97784767  0.89680850  1
  O  O2664  1  0.48640583  0.14451433  0.06347517  1
  O  O2665  1  0.48640583  0.14451433  0.23014183  1
  O  O2666  1  0.48640583  0.14451433  0.39680850  1
  O  O2667  1  0.48640583  0.14451433  0.56347517  1
  O  O2668  1  0.48640583  0.14451433  0.73014183  1
  O  O2669  1  0.48640583  0.14451433  0.89680850  1
  O  O2670  1  0.48640583  0.31118100  0.06347517  1
  O  O2671  1  0.48640583  0.31118100  0.23014183  1
  O  O2672  1  0.48640583  0.31118100  0.39680850  1
  O  O2673  1  0.48640583  0.31118100  0.56347517  1
  O  O2674  1  0.48640583  0.31118100  0.73014183  1
  O  O2675  1  0.48640583  0.31118100  0.89680850  1
  O  O2676  1  0.48640583  0.47784767  0.06347517  1
  O  O2677  1  0.48640583  0.47784767  0.23014183  1
  O  O2678  1  0.48640583  0.47784767  0.39680850  1
  O  O2679  1  0.48640583  0.47784767  0.56347517  1
  O  O2680  1  0.48640583  0.47784767  0.73014183  1
  O  O2681  1  0.48640583  0.47784767  0.89680850  1
  O  O2682  1  0.48640583  0.64451433  0.06347517  1
  O  O2683  1  0.48640583  0.64451433  0.23014183  1
  O  O2684  1  0.48640583  0.64451433  0.39680850  1
  O  O2685  1  0.48640583  0.64451433  0.56347517  1
  O  O2686  1  0.48640583  0.64451433  0.73014183  1
  O  O2687  1  0.48640583  0.64451433  0.89680850  1
  O  O2688  1  0.48640583  0.81118100  0.06347517  1
  O  O2689  1  0.48640583  0.81118100  0.23014183  1
  O  O2690  1  0.48640583  0.81118100  0.39680850  1
  O  O2691  1  0.48640583  0.81118100  0.56347517  1
  O  O2692  1  0.48640583  0.81118100  0.73014183  1
  O  O2693  1  0.48640583  0.81118100  0.89680850  1
  O  O2694  1  0.48640583  0.97784767  0.06347517  1
  O  O2695  1  0.48640583  0.97784767  0.23014183  1
  O  O2696  1  0.48640583  0.97784767  0.39680850  1
  O  O2697  1  0.48640583  0.97784767  0.56347517  1
  O  O2698  1  0.48640583  0.97784767  0.73014183  1
  O  O2699  1  0.48640583  0.97784767  0.89680850  1
  O  O2700  1  0.65307250  0.14451433  0.06347517  1
  O  O2701  1  0.65307250  0.14451433  0.23014183  1
  O  O2702  1  0.65307250  0.14451433  0.39680850  1
  O  O2703  1  0.65307250  0.14451433  0.56347517  1
  O  O2704  1  0.65307250  0.14451433  0.73014183  1
  O  O2705  1  0.65307250  0.14451433  0.89680850  1
  O  O2706  1  0.65307250  0.31118100  0.06347517  1
  O  O2707  1  0.65307250  0.31118100  0.23014183  1
  O  O2708  1  0.65307250  0.31118100  0.39680850  1
  O  O2709  1  0.65307250  0.31118100  0.56347517  1
  O  O2710  1  0.65307250  0.31118100  0.73014183  1
  O  O2711  1  0.65307250  0.31118100  0.89680850  1
  O  O2712  1  0.65307250  0.47784767  0.06347517  1
  O  O2713  1  0.65307250  0.47784767  0.23014183  1
  O  O2714  1  0.65307250  0.47784767  0.39680850  1
  O  O2715  1  0.65307250  0.47784767  0.56347517  1
  O  O2716  1  0.65307250  0.47784767  0.73014183  1
  O  O2717  1  0.65307250  0.47784767  0.89680850  1
  O  O2718  1  0.65307250  0.64451433  0.06347517  1
  O  O2719  1  0.65307250  0.64451433  0.23014183  1
  O  O2720  1  0.65307250  0.64451433  0.39680850  1
  O  O2721  1  0.65307250  0.64451433  0.56347517  1
  O  O2722  1  0.65307250  0.64451433  0.73014183  1
  O  O2723  1  0.65307250  0.64451433  0.89680850  1
  O  O2724  1  0.65307250  0.81118100  0.06347517  1
  O  O2725  1  0.65307250  0.81118100  0.23014183  1
  O  O2726  1  0.65307250  0.81118100  0.39680850  1
  O  O2727  1  0.65307250  0.81118100  0.56347517  1
  O  O2728  1  0.65307250  0.81118100  0.73014183  1
  O  O2729  1  0.65307250  0.81118100  0.89680850  1
  O  O2730  1  0.65307250  0.97784767  0.06347517  1
  O  O2731  1  0.65307250  0.97784767  0.23014183  1
  O  O2732  1  0.65307250  0.97784767  0.39680850  1
  O  O2733  1  0.65307250  0.97784767  0.56347517  1
  O  O2734  1  0.65307250  0.97784767  0.73014183  1
  O  O2735  1  0.65307250  0.97784767  0.89680850  1
  O  O2736  1  0.81973917  0.14451433  0.06347517  1
  O  O2737  1  0.81973917  0.14451433  0.23014183  1
  O  O2738  1  0.81973917  0.14451433  0.39680850  1
  O  O2739  1  0.81973917  0.14451433  0.56347517  1
  O  O2740  1  0.81973917  0.14451433  0.73014183  1
  O  O2741  1  0.81973917  0.14451433  0.89680850  1
  O  O2742  1  0.81973917  0.31118100  0.06347517  1
  O  O2743  1  0.81973917  0.31118100  0.23014183  1
  O  O2744  1  0.81973917  0.31118100  0.39680850  1
  O  O2745  1  0.81973917  0.31118100  0.56347517  1
  O  O2746  1  0.81973917  0.31118100  0.73014183  1
  O  O2747  1  0.81973917  0.31118100  0.89680850  1
  O  O2748  1  0.81973917  0.47784767  0.06347517  1
  O  O2749  1  0.81973917  0.47784767  0.23014183  1
  O  O2750  1  0.81973917  0.47784767  0.39680850  1
  O  O2751  1  0.81973917  0.47784767  0.56347517  1
  O  O2752  1  0.81973917  0.47784767  0.73014183  1
  O  O2753  1  0.81973917  0.47784767  0.89680850  1
  O  O2754  1  0.81973917  0.64451433  0.06347517  1
  O  O2755  1  0.81973917  0.64451433  0.23014183  1
  O  O2756  1  0.81973917  0.64451433  0.39680850  1
  O  O2757  1  0.81973917  0.64451433  0.56347517  1
  O  O2758  1  0.81973917  0.64451433  0.73014183  1
  O  O2759  1  0.81973917  0.64451433  0.89680850  1
  O  O2760  1  0.81973917  0.81118100  0.06347517  1
  O  O2761  1  0.81973917  0.81118100  0.23014183  1
  O  O2762  1  0.81973917  0.81118100  0.39680850  1
  O  O2763  1  0.81973917  0.81118100  0.56347517  1
  O  O2764  1  0.81973917  0.81118100  0.73014183  1
  O  O2765  1  0.81973917  0.81118100  0.89680850  1
  O  O2766  1  0.81973917  0.97784767  0.06347517  1
  O  O2767  1  0.81973917  0.97784767  0.23014183  1
  O  O2768  1  0.81973917  0.97784767  0.39680850  1
  O  O2769  1  0.81973917  0.97784767  0.56347517  1
  O  O2770  1  0.81973917  0.97784767  0.73014183  1
  O  O2771  1  0.81973917  0.97784767  0.89680850  1
  O  O2772  1  0.98640583  0.14451433  0.06347517  1
  O  O2773  1  0.98640583  0.14451433  0.23014183  1
  O  O2774  1  0.98640583  0.14451433  0.39680850  1
  O  O2775  1  0.98640583  0.14451433  0.56347517  1
  O  O2776  1  0.98640583  0.14451433  0.73014183  1
  O  O2777  1  0.98640583  0.14451433  0.89680850  1
  O  O2778  1  0.98640583  0.31118100  0.06347517  1
  O  O2779  1  0.98640583  0.31118100  0.23014183  1
  O  O2780  1  0.98640583  0.31118100  0.39680850  1
  O  O2781  1  0.98640583  0.31118100  0.56347517  1
  O  O2782  1  0.98640583  0.31118100  0.73014183  1
  O  O2783  1  0.98640583  0.31118100  0.89680850  1
  O  O2784  1  0.98640583  0.47784767  0.06347517  1
  O  O2785  1  0.98640583  0.47784767  0.23014183  1
  O  O2786  1  0.98640583  0.47784767  0.39680850  1
  O  O2787  1  0.98640583  0.47784767  0.56347517  1
  O  O2788  1  0.98640583  0.47784767  0.73014183  1
  O  O2789  1  0.98640583  0.47784767  0.89680850  1
  O  O2790  1  0.98640583  0.64451433  0.06347517  1
  O  O2791  1  0.98640583  0.64451433  0.23014183  1
  O  O2792  1  0.98640583  0.64451433  0.39680850  1
  O  O2793  1  0.98640583  0.64451433  0.56347517  1
  O  O2794  1  0.98640583  0.64451433  0.73014183  1
  O  O2795  1  0.98640583  0.64451433  0.89680850  1
  O  O2796  1  0.98640583  0.81118100  0.06347517  1
  O  O2797  1  0.98640583  0.81118100  0.23014183  1
  O  O2798  1  0.98640583  0.81118100  0.39680850  1
  O  O2799  1  0.98640583  0.81118100  0.56347517  1
  O  O2800  1  0.98640583  0.81118100  0.73014183  1
  O  O2801  1  0.98640583  0.81118100  0.89680850  1
  O  O2802  1  0.98640583  0.97784767  0.06347517  1
  O  O2803  1  0.98640583  0.97784767  0.23014183  1
  O  O2804  1  0.98640583  0.97784767  0.39680850  1
  O  O2805  1  0.98640583  0.97784767  0.56347517  1
  O  O2806  1  0.98640583  0.97784767  0.73014183  1
  O  O2807  1  0.98640583  0.97784767  0.89680850  1
  O  O2808  1  0.01359417  0.02215233  0.10319150  1
  O  O2809  1  0.01359417  0.02215233  0.26985817  1
  O  O2810  1  0.01359417  0.02215233  0.43652483  1
  O  O2811  1  0.01359417  0.02215233  0.60319150  1
  O  O2812  1  0.01359417  0.02215233  0.76985817  1
  O  O2813  1  0.01359417  0.02215233  0.93652483  1
  O  O2814  1  0.01359417  0.18881900  0.10319150  1
  O  O2815  1  0.01359417  0.18881900  0.26985817  1
  O  O2816  1  0.01359417  0.18881900  0.43652483  1
  O  O2817  1  0.01359417  0.18881900  0.60319150  1
  O  O2818  1  0.01359417  0.18881900  0.76985817  1
  O  O2819  1  0.01359417  0.18881900  0.93652483  1
  O  O2820  1  0.01359417  0.35548567  0.10319150  1
  O  O2821  1  0.01359417  0.35548567  0.26985817  1
  O  O2822  1  0.01359417  0.35548567  0.43652483  1
  O  O2823  1  0.01359417  0.35548567  0.60319150  1
  O  O2824  1  0.01359417  0.35548567  0.76985817  1
  O  O2825  1  0.01359417  0.35548567  0.93652483  1
  O  O2826  1  0.01359417  0.52215233  0.10319150  1
  O  O2827  1  0.01359417  0.52215233  0.26985817  1
  O  O2828  1  0.01359417  0.52215233  0.43652483  1
  O  O2829  1  0.01359417  0.52215233  0.60319150  1
  O  O2830  1  0.01359417  0.52215233  0.76985817  1
  O  O2831  1  0.01359417  0.52215233  0.93652483  1
  O  O2832  1  0.01359417  0.68881900  0.10319150  1
  O  O2833  1  0.01359417  0.68881900  0.26985817  1
  O  O2834  1  0.01359417  0.68881900  0.43652483  1
  O  O2835  1  0.01359417  0.68881900  0.60319150  1
  O  O2836  1  0.01359417  0.68881900  0.76985817  1
  O  O2837  1  0.01359417  0.68881900  0.93652483  1
  O  O2838  1  0.01359417  0.85548567  0.10319150  1
  O  O2839  1  0.01359417  0.85548567  0.26985817  1
  O  O2840  1  0.01359417  0.85548567  0.43652483  1
  O  O2841  1  0.01359417  0.85548567  0.60319150  1
  O  O2842  1  0.01359417  0.85548567  0.76985817  1
  O  O2843  1  0.01359417  0.85548567  0.93652483  1
  O  O2844  1  0.18026083  0.02215233  0.10319150  1
  O  O2845  1  0.18026083  0.02215233  0.26985817  1
  O  O2846  1  0.18026083  0.02215233  0.43652483  1
  O  O2847  1  0.18026083  0.02215233  0.60319150  1
  O  O2848  1  0.18026083  0.02215233  0.76985817  1
  O  O2849  1  0.18026083  0.02215233  0.93652483  1
  O  O2850  1  0.18026083  0.18881900  0.10319150  1
  O  O2851  1  0.18026083  0.18881900  0.26985817  1
  O  O2852  1  0.18026083  0.18881900  0.43652483  1
  O  O2853  1  0.18026083  0.18881900  0.60319150  1
  O  O2854  1  0.18026083  0.18881900  0.76985817  1
  O  O2855  1  0.18026083  0.18881900  0.93652483  1
  O  O2856  1  0.18026083  0.35548567  0.10319150  1
  O  O2857  1  0.18026083  0.35548567  0.26985817  1
  O  O2858  1  0.18026083  0.35548567  0.43652483  1
  O  O2859  1  0.18026083  0.35548567  0.60319150  1
  O  O2860  1  0.18026083  0.35548567  0.76985817  1
  O  O2861  1  0.18026083  0.35548567  0.93652483  1
  O  O2862  1  0.18026083  0.52215233  0.10319150  1
  O  O2863  1  0.18026083  0.52215233  0.26985817  1
  O  O2864  1  0.18026083  0.52215233  0.43652483  1
  O  O2865  1  0.18026083  0.52215233  0.60319150  1
  O  O2866  1  0.18026083  0.52215233  0.76985817  1
  O  O2867  1  0.18026083  0.52215233  0.93652483  1
  O  O2868  1  0.18026083  0.68881900  0.10319150  1
  O  O2869  1  0.18026083  0.68881900  0.26985817  1
  O  O2870  1  0.18026083  0.68881900  0.43652483  1
  O  O2871  1  0.18026083  0.68881900  0.60319150  1
  O  O2872  1  0.18026083  0.68881900  0.76985817  1
  O  O2873  1  0.18026083  0.68881900  0.93652483  1
  O  O2874  1  0.18026083  0.85548567  0.10319150  1
  O  O2875  1  0.18026083  0.85548567  0.26985817  1
  O  O2876  1  0.18026083  0.85548567  0.43652483  1
  O  O2877  1  0.18026083  0.85548567  0.60319150  1
  O  O2878  1  0.18026083  0.85548567  0.76985817  1
  O  O2879  1  0.18026083  0.85548567  0.93652483  1
  O  O2880  1  0.34692750  0.02215233  0.10319150  1
  O  O2881  1  0.34692750  0.02215233  0.26985817  1
  O  O2882  1  0.34692750  0.02215233  0.43652483  1
  O  O2883  1  0.34692750  0.02215233  0.60319150  1
  O  O2884  1  0.34692750  0.02215233  0.76985817  1
  O  O2885  1  0.34692750  0.02215233  0.93652483  1
  O  O2886  1  0.34692750  0.18881900  0.10319150  1
  O  O2887  1  0.34692750  0.18881900  0.26985817  1
  O  O2888  1  0.34692750  0.18881900  0.43652483  1
  O  O2889  1  0.34692750  0.18881900  0.60319150  1
  O  O2890  1  0.34692750  0.18881900  0.76985817  1
  O  O2891  1  0.34692750  0.18881900  0.93652483  1
  O  O2892  1  0.34692750  0.35548567  0.10319150  1
  O  O2893  1  0.34692750  0.35548567  0.26985817  1
  O  O2894  1  0.34692750  0.35548567  0.43652483  1
  O  O2895  1  0.34692750  0.35548567  0.60319150  1
  O  O2896  1  0.34692750  0.35548567  0.76985817  1
  O  O2897  1  0.34692750  0.35548567  0.93652483  1
  O  O2898  1  0.34692750  0.52215233  0.10319150  1
  O  O2899  1  0.34692750  0.52215233  0.26985817  1
  O  O2900  1  0.34692750  0.52215233  0.43652483  1
  O  O2901  1  0.34692750  0.52215233  0.60319150  1
  O  O2902  1  0.34692750  0.52215233  0.76985817  1
  O  O2903  1  0.34692750  0.52215233  0.93652483  1
  O  O2904  1  0.34692750  0.68881900  0.10319150  1
  O  O2905  1  0.34692750  0.68881900  0.26985817  1
  O  O2906  1  0.34692750  0.68881900  0.43652483  1
  O  O2907  1  0.34692750  0.68881900  0.60319150  1
  O  O2908  1  0.34692750  0.68881900  0.76985817  1
  O  O2909  1  0.34692750  0.68881900  0.93652483  1
  O  O2910  1  0.34692750  0.85548567  0.10319150  1
  O  O2911  1  0.34692750  0.85548567  0.26985817  1
  O  O2912  1  0.34692750  0.85548567  0.43652483  1
  O  O2913  1  0.34692750  0.85548567  0.60319150  1
  O  O2914  1  0.34692750  0.85548567  0.76985817  1
  O  O2915  1  0.34692750  0.85548567  0.93652483  1
  O  O2916  1  0.51359417  0.02215233  0.10319150  1
  O  O2917  1  0.51359417  0.02215233  0.26985817  1
  O  O2918  1  0.51359417  0.02215233  0.43652483  1
  O  O2919  1  0.51359417  0.02215233  0.60319150  1
  O  O2920  1  0.51359417  0.02215233  0.76985817  1
  O  O2921  1  0.51359417  0.02215233  0.93652483  1
  O  O2922  1  0.51359417  0.18881900  0.10319150  1
  O  O2923  1  0.51359417  0.18881900  0.26985817  1
  O  O2924  1  0.51359417  0.18881900  0.43652483  1
  O  O2925  1  0.51359417  0.18881900  0.60319150  1
  O  O2926  1  0.51359417  0.18881900  0.76985817  1
  O  O2927  1  0.51359417  0.18881900  0.93652483  1
  O  O2928  1  0.51359417  0.35548567  0.10319150  1
  O  O2929  1  0.51359417  0.35548567  0.26985817  1
  O  O2930  1  0.51359417  0.35548567  0.43652483  1
  O  O2931  1  0.51359417  0.35548567  0.60319150  1
  O  O2932  1  0.51359417  0.35548567  0.76985817  1
  O  O2933  1  0.51359417  0.35548567  0.93652483  1
  O  O2934  1  0.51359417  0.52215233  0.10319150  1
  O  O2935  1  0.51359417  0.52215233  0.26985817  1
  O  O2936  1  0.51359417  0.52215233  0.43652483  1
  O  O2937  1  0.51359417  0.52215233  0.60319150  1
  O  O2938  1  0.51359417  0.52215233  0.76985817  1
  O  O2939  1  0.51359417  0.52215233  0.93652483  1
  O  O2940  1  0.51359417  0.68881900  0.10319150  1
  O  O2941  1  0.51359417  0.68881900  0.26985817  1
  O  O2942  1  0.51359417  0.68881900  0.43652483  1
  O  O2943  1  0.51359417  0.68881900  0.60319150  1
  O  O2944  1  0.51359417  0.68881900  0.76985817  1
  O  O2945  1  0.51359417  0.68881900  0.93652483  1
  O  O2946  1  0.51359417  0.85548567  0.10319150  1
  O  O2947  1  0.51359417  0.85548567  0.26985817  1
  O  O2948  1  0.51359417  0.85548567  0.43652483  1
  O  O2949  1  0.51359417  0.85548567  0.60319150  1
  O  O2950  1  0.51359417  0.85548567  0.76985817  1
  O  O2951  1  0.51359417  0.85548567  0.93652483  1
  O  O2952  1  0.68026083  0.02215233  0.10319150  1
  O  O2953  1  0.68026083  0.02215233  0.26985817  1
  O  O2954  1  0.68026083  0.02215233  0.43652483  1
  O  O2955  1  0.68026083  0.02215233  0.60319150  1
  O  O2956  1  0.68026083  0.02215233  0.76985817  1
  O  O2957  1  0.68026083  0.02215233  0.93652483  1
  O  O2958  1  0.68026083  0.18881900  0.10319150  1
  O  O2959  1  0.68026083  0.18881900  0.26985817  1
  O  O2960  1  0.68026083  0.18881900  0.43652483  1
  O  O2961  1  0.68026083  0.18881900  0.60319150  1
  O  O2962  1  0.68026083  0.18881900  0.76985817  1
  O  O2963  1  0.68026083  0.18881900  0.93652483  1
  O  O2964  1  0.68026083  0.35548567  0.10319150  1
  O  O2965  1  0.68026083  0.35548567  0.26985817  1
  O  O2966  1  0.68026083  0.35548567  0.43652483  1
  O  O2967  1  0.68026083  0.35548567  0.60319150  1
  O  O2968  1  0.68026083  0.35548567  0.76985817  1
  O  O2969  1  0.68026083  0.35548567  0.93652483  1
  O  O2970  1  0.68026083  0.52215233  0.10319150  1
  O  O2971  1  0.68026083  0.52215233  0.26985817  1
  O  O2972  1  0.68026083  0.52215233  0.43652483  1
  O  O2973  1  0.68026083  0.52215233  0.60319150  1
  O  O2974  1  0.68026083  0.52215233  0.76985817  1
  O  O2975  1  0.68026083  0.52215233  0.93652483  1
  O  O2976  1  0.68026083  0.68881900  0.10319150  1
  O  O2977  1  0.68026083  0.68881900  0.26985817  1
  O  O2978  1  0.68026083  0.68881900  0.43652483  1
  O  O2979  1  0.68026083  0.68881900  0.60319150  1
  O  O2980  1  0.68026083  0.68881900  0.76985817  1
  O  O2981  1  0.68026083  0.68881900  0.93652483  1
  O  O2982  1  0.68026083  0.85548567  0.10319150  1
  O  O2983  1  0.68026083  0.85548567  0.26985817  1
  O  O2984  1  0.68026083  0.85548567  0.43652483  1
  O  O2985  1  0.68026083  0.85548567  0.60319150  1
  O  O2986  1  0.68026083  0.85548567  0.76985817  1
  O  O2987  1  0.68026083  0.85548567  0.93652483  1
  O  O2988  1  0.84692750  0.02215233  0.10319150  1
  O  O2989  1  0.84692750  0.02215233  0.26985817  1
  O  O2990  1  0.84692750  0.02215233  0.43652483  1
  O  O2991  1  0.84692750  0.02215233  0.60319150  1
  O  O2992  1  0.84692750  0.02215233  0.76985817  1
  O  O2993  1  0.84692750  0.02215233  0.93652483  1
  O  O2994  1  0.84692750  0.18881900  0.10319150  1
  O  O2995  1  0.84692750  0.18881900  0.26985817  1
  O  O2996  1  0.84692750  0.18881900  0.43652483  1
  O  O2997  1  0.84692750  0.18881900  0.60319150  1
  O  O2998  1  0.84692750  0.18881900  0.76985817  1
  O  O2999  1  0.84692750  0.18881900  0.93652483  1
  O  O3000  1  0.84692750  0.35548567  0.10319150  1
  O  O3001  1  0.84692750  0.35548567  0.26985817  1
  O  O3002  1  0.84692750  0.35548567  0.43652483  1
  O  O3003  1  0.84692750  0.35548567  0.60319150  1
  O  O3004  1  0.84692750  0.35548567  0.76985817  1
  O  O3005  1  0.84692750  0.35548567  0.93652483  1
  O  O3006  1  0.84692750  0.52215233  0.10319150  1
  O  O3007  1  0.84692750  0.52215233  0.26985817  1
  O  O3008  1  0.84692750  0.52215233  0.43652483  1
  O  O3009  1  0.84692750  0.52215233  0.60319150  1
  O  O3010  1  0.84692750  0.52215233  0.76985817  1
  O  O3011  1  0.84692750  0.52215233  0.93652483  1
  O  O3012  1  0.84692750  0.68881900  0.10319150  1
  O  O3013  1  0.84692750  0.68881900  0.26985817  1
  O  O3014  1  0.84692750  0.68881900  0.43652483  1
  O  O3015  1  0.84692750  0.68881900  0.60319150  1
  O  O3016  1  0.84692750  0.68881900  0.76985817  1
  O  O3017  1  0.84692750  0.68881900  0.93652483  1
  O  O3018  1  0.84692750  0.85548567  0.10319150  1
  O  O3019  1  0.84692750  0.85548567  0.26985817  1
  O  O3020  1  0.84692750  0.85548567  0.43652483  1
  O  O3021  1  0.84692750  0.85548567  0.60319150  1
  O  O3022  1  0.84692750  0.85548567  0.76985817  1
  O  O3023  1  0.84692750  0.85548567  0.93652483  1
  O  O3024  1  0.04512867  0.13289233  0.01707383  1
  O  O3025  1  0.04512867  0.13289233  0.18374050  1
  O  O3026  1  0.04512867  0.13289233  0.35040717  1
  O  O3027  1  0.04512867  0.13289233  0.51707383  1
  O  O3028  1  0.04512867  0.13289233  0.68374050  1
  O  O3029  1  0.04512867  0.13289233  0.85040717  1
  O  O3030  1  0.04512867  0.29955900  0.01707383  1
  O  O3031  1  0.04512867  0.29955900  0.18374050  1
  O  O3032  1  0.04512867  0.29955900  0.35040717  1
  O  O3033  1  0.04512867  0.29955900  0.51707383  1
  O  O3034  1  0.04512867  0.29955900  0.68374050  1
  O  O3035  1  0.04512867  0.29955900  0.85040717  1
  O  O3036  1  0.04512867  0.46622567  0.01707383  1
  O  O3037  1  0.04512867  0.46622567  0.18374050  1
  O  O3038  1  0.04512867  0.46622567  0.35040717  1
  O  O3039  1  0.04512867  0.46622567  0.51707383  1
  O  O3040  1  0.04512867  0.46622567  0.68374050  1
  O  O3041  1  0.04512867  0.46622567  0.85040717  1
  O  O3042  1  0.04512867  0.63289233  0.01707383  1
  O  O3043  1  0.04512867  0.63289233  0.18374050  1
  O  O3044  1  0.04512867  0.63289233  0.35040717  1
  O  O3045  1  0.04512867  0.63289233  0.51707383  1
  O  O3046  1  0.04512867  0.63289233  0.68374050  1
  O  O3047  1  0.04512867  0.63289233  0.85040717  1
  O  O3048  1  0.04512867  0.79955900  0.01707383  1
  O  O3049  1  0.04512867  0.79955900  0.18374050  1
  O  O3050  1  0.04512867  0.79955900  0.35040717  1
  O  O3051  1  0.04512867  0.79955900  0.51707383  1
  O  O3052  1  0.04512867  0.79955900  0.68374050  1
  O  O3053  1  0.04512867  0.79955900  0.85040717  1
  O  O3054  1  0.04512867  0.96622567  0.01707383  1
  O  O3055  1  0.04512867  0.96622567  0.18374050  1
  O  O3056  1  0.04512867  0.96622567  0.35040717  1
  O  O3057  1  0.04512867  0.96622567  0.51707383  1
  O  O3058  1  0.04512867  0.96622567  0.68374050  1
  O  O3059  1  0.04512867  0.96622567  0.85040717  1
  O  O3060  1  0.21179533  0.13289233  0.01707383  1
  O  O3061  1  0.21179533  0.13289233  0.18374050  1
  O  O3062  1  0.21179533  0.13289233  0.35040717  1
  O  O3063  1  0.21179533  0.13289233  0.51707383  1
  O  O3064  1  0.21179533  0.13289233  0.68374050  1
  O  O3065  1  0.21179533  0.13289233  0.85040717  1
  O  O3066  1  0.21179533  0.29955900  0.01707383  1
  O  O3067  1  0.21179533  0.29955900  0.18374050  1
  O  O3068  1  0.21179533  0.29955900  0.35040717  1
  O  O3069  1  0.21179533  0.29955900  0.51707383  1
  O  O3070  1  0.21179533  0.29955900  0.68374050  1
  O  O3071  1  0.21179533  0.29955900  0.85040717  1
  O  O3072  1  0.21179533  0.46622567  0.01707383  1
  O  O3073  1  0.21179533  0.46622567  0.18374050  1
  O  O3074  1  0.21179533  0.46622567  0.35040717  1
  O  O3075  1  0.21179533  0.46622567  0.51707383  1
  O  O3076  1  0.21179533  0.46622567  0.68374050  1
  O  O3077  1  0.21179533  0.46622567  0.85040717  1
  O  O3078  1  0.21179533  0.63289233  0.01707383  1
  O  O3079  1  0.21179533  0.63289233  0.18374050  1
  O  O3080  1  0.21179533  0.63289233  0.35040717  1
  O  O3081  1  0.21179533  0.63289233  0.51707383  1
  O  O3082  1  0.21179533  0.63289233  0.68374050  1
  O  O3083  1  0.21179533  0.63289233  0.85040717  1
  O  O3084  1  0.21179533  0.79955900  0.01707383  1
  O  O3085  1  0.21179533  0.79955900  0.18374050  1
  O  O3086  1  0.21179533  0.79955900  0.35040717  1
  O  O3087  1  0.21179533  0.79955900  0.51707383  1
  O  O3088  1  0.21179533  0.79955900  0.68374050  1
  O  O3089  1  0.21179533  0.79955900  0.85040717  1
  O  O3090  1  0.21179533  0.96622567  0.01707383  1
  O  O3091  1  0.21179533  0.96622567  0.18374050  1
  O  O3092  1  0.21179533  0.96622567  0.35040717  1
  O  O3093  1  0.21179533  0.96622567  0.51707383  1
  O  O3094  1  0.21179533  0.96622567  0.68374050  1
  O  O3095  1  0.21179533  0.96622567  0.85040717  1
  O  O3096  1  0.37846200  0.13289233  0.01707383  1
  O  O3097  1  0.37846200  0.13289233  0.18374050  1
  O  O3098  1  0.37846200  0.13289233  0.35040717  1
  O  O3099  1  0.37846200  0.13289233  0.51707383  1
  O  O3100  1  0.37846200  0.13289233  0.68374050  1
  O  O3101  1  0.37846200  0.13289233  0.85040717  1
  O  O3102  1  0.37846200  0.29955900  0.01707383  1
  O  O3103  1  0.37846200  0.29955900  0.18374050  1
  O  O3104  1  0.37846200  0.29955900  0.35040717  1
  O  O3105  1  0.37846200  0.29955900  0.51707383  1
  O  O3106  1  0.37846200  0.29955900  0.68374050  1
  O  O3107  1  0.37846200  0.29955900  0.85040717  1
  O  O3108  1  0.37846200  0.46622567  0.01707383  1
  O  O3109  1  0.37846200  0.46622567  0.18374050  1
  O  O3110  1  0.37846200  0.46622567  0.35040717  1
  O  O3111  1  0.37846200  0.46622567  0.51707383  1
  O  O3112  1  0.37846200  0.46622567  0.68374050  1
  O  O3113  1  0.37846200  0.46622567  0.85040717  1
  O  O3114  1  0.37846200  0.63289233  0.01707383  1
  O  O3115  1  0.37846200  0.63289233  0.18374050  1
  O  O3116  1  0.37846200  0.63289233  0.35040717  1
  O  O3117  1  0.37846200  0.63289233  0.51707383  1
  O  O3118  1  0.37846200  0.63289233  0.68374050  1
  O  O3119  1  0.37846200  0.63289233  0.85040717  1
  O  O3120  1  0.37846200  0.79955900  0.01707383  1
  O  O3121  1  0.37846200  0.79955900  0.18374050  1
  O  O3122  1  0.37846200  0.79955900  0.35040717  1
  O  O3123  1  0.37846200  0.79955900  0.51707383  1
  O  O3124  1  0.37846200  0.79955900  0.68374050  1
  O  O3125  1  0.37846200  0.79955900  0.85040717  1
  O  O3126  1  0.37846200  0.96622567  0.01707383  1
  O  O3127  1  0.37846200  0.96622567  0.18374050  1
  O  O3128  1  0.37846200  0.96622567  0.35040717  1
  O  O3129  1  0.37846200  0.96622567  0.51707383  1
  O  O3130  1  0.37846200  0.96622567  0.68374050  1
  O  O3131  1  0.37846200  0.96622567  0.85040717  1
  O  O3132  1  0.54512867  0.13289233  0.01707383  1
  O  O3133  1  0.54512867  0.13289233  0.18374050  1
  O  O3134  1  0.54512867  0.13289233  0.35040717  1
  O  O3135  1  0.54512867  0.13289233  0.51707383  1
  O  O3136  1  0.54512867  0.13289233  0.68374050  1
  O  O3137  1  0.54512867  0.13289233  0.85040717  1
  O  O3138  1  0.54512867  0.29955900  0.01707383  1
  O  O3139  1  0.54512867  0.29955900  0.18374050  1
  O  O3140  1  0.54512867  0.29955900  0.35040717  1
  O  O3141  1  0.54512867  0.29955900  0.51707383  1
  O  O3142  1  0.54512867  0.29955900  0.68374050  1
  O  O3143  1  0.54512867  0.29955900  0.85040717  1
  O  O3144  1  0.54512867  0.46622567  0.01707383  1
  O  O3145  1  0.54512867  0.46622567  0.18374050  1
  O  O3146  1  0.54512867  0.46622567  0.35040717  1
  O  O3147  1  0.54512867  0.46622567  0.51707383  1
  O  O3148  1  0.54512867  0.46622567  0.68374050  1
  O  O3149  1  0.54512867  0.46622567  0.85040717  1
  O  O3150  1  0.54512867  0.63289233  0.01707383  1
  O  O3151  1  0.54512867  0.63289233  0.18374050  1
  O  O3152  1  0.54512867  0.63289233  0.35040717  1
  O  O3153  1  0.54512867  0.63289233  0.51707383  1
  O  O3154  1  0.54512867  0.63289233  0.68374050  1
  O  O3155  1  0.54512867  0.63289233  0.85040717  1
  O  O3156  1  0.54512867  0.79955900  0.01707383  1
  O  O3157  1  0.54512867  0.79955900  0.18374050  1
  O  O3158  1  0.54512867  0.79955900  0.35040717  1
  O  O3159  1  0.54512867  0.79955900  0.51707383  1
  O  O3160  1  0.54512867  0.79955900  0.68374050  1
  O  O3161  1  0.54512867  0.79955900  0.85040717  1
  O  O3162  1  0.54512867  0.96622567  0.01707383  1
  O  O3163  1  0.54512867  0.96622567  0.18374050  1
  O  O3164  1  0.54512867  0.96622567  0.35040717  1
  O  O3165  1  0.54512867  0.96622567  0.51707383  1
  O  O3166  1  0.54512867  0.96622567  0.68374050  1
  O  O3167  1  0.54512867  0.96622567  0.85040717  1
  O  O3168  1  0.71179533  0.13289233  0.01707383  1
  O  O3169  1  0.71179533  0.13289233  0.18374050  1
  O  O3170  1  0.71179533  0.13289233  0.35040717  1
  O  O3171  1  0.71179533  0.13289233  0.51707383  1
  O  O3172  1  0.71179533  0.13289233  0.68374050  1
  O  O3173  1  0.71179533  0.13289233  0.85040717  1
  O  O3174  1  0.71179533  0.29955900  0.01707383  1
  O  O3175  1  0.71179533  0.29955900  0.18374050  1
  O  O3176  1  0.71179533  0.29955900  0.35040717  1
  O  O3177  1  0.71179533  0.29955900  0.51707383  1
  O  O3178  1  0.71179533  0.29955900  0.68374050  1
  O  O3179  1  0.71179533  0.29955900  0.85040717  1
  O  O3180  1  0.71179533  0.46622567  0.01707383  1
  O  O3181  1  0.71179533  0.46622567  0.18374050  1
  O  O3182  1  0.71179533  0.46622567  0.35040717  1
  O  O3183  1  0.71179533  0.46622567  0.51707383  1
  O  O3184  1  0.71179533  0.46622567  0.68374050  1
  O  O3185  1  0.71179533  0.46622567  0.85040717  1
  O  O3186  1  0.71179533  0.63289233  0.01707383  1
  O  O3187  1  0.71179533  0.63289233  0.18374050  1
  O  O3188  1  0.71179533  0.63289233  0.35040717  1
  O  O3189  1  0.71179533  0.63289233  0.51707383  1
  O  O3190  1  0.71179533  0.63289233  0.68374050  1
  O  O3191  1  0.71179533  0.63289233  0.85040717  1
  O  O3192  1  0.71179533  0.79955900  0.01707383  1
  O  O3193  1  0.71179533  0.79955900  0.18374050  1
  O  O3194  1  0.71179533  0.79955900  0.35040717  1
  O  O3195  1  0.71179533  0.79955900  0.51707383  1
  O  O3196  1  0.71179533  0.79955900  0.68374050  1
  O  O3197  1  0.71179533  0.79955900  0.85040717  1
  O  O3198  1  0.71179533  0.96622567  0.01707383  1
  O  O3199  1  0.71179533  0.96622567  0.18374050  1
  O  O3200  1  0.71179533  0.96622567  0.35040717  1
  O  O3201  1  0.71179533  0.96622567  0.51707383  1
  O  O3202  1  0.71179533  0.96622567  0.68374050  1
  O  O3203  1  0.71179533  0.96622567  0.85040717  1
  O  O3204  1  0.87846200  0.13289233  0.01707383  1
  O  O3205  1  0.87846200  0.13289233  0.18374050  1
  O  O3206  1  0.87846200  0.13289233  0.35040717  1
  O  O3207  1  0.87846200  0.13289233  0.51707383  1
  O  O3208  1  0.87846200  0.13289233  0.68374050  1
  O  O3209  1  0.87846200  0.13289233  0.85040717  1
  O  O3210  1  0.87846200  0.29955900  0.01707383  1
  O  O3211  1  0.87846200  0.29955900  0.18374050  1
  O  O3212  1  0.87846200  0.29955900  0.35040717  1
  O  O3213  1  0.87846200  0.29955900  0.51707383  1
  O  O3214  1  0.87846200  0.29955900  0.68374050  1
  O  O3215  1  0.87846200  0.29955900  0.85040717  1
  O  O3216  1  0.87846200  0.46622567  0.01707383  1
  O  O3217  1  0.87846200  0.46622567  0.18374050  1
  O  O3218  1  0.87846200  0.46622567  0.35040717  1
  O  O3219  1  0.87846200  0.46622567  0.51707383  1
  O  O3220  1  0.87846200  0.46622567  0.68374050  1
  O  O3221  1  0.87846200  0.46622567  0.85040717  1
  O  O3222  1  0.87846200  0.63289233  0.01707383  1
  O  O3223  1  0.87846200  0.63289233  0.18374050  1
  O  O3224  1  0.87846200  0.63289233  0.35040717  1
  O  O3225  1  0.87846200  0.63289233  0.51707383  1
  O  O3226  1  0.87846200  0.63289233  0.68374050  1
  O  O3227  1  0.87846200  0.63289233  0.85040717  1
  O  O3228  1  0.87846200  0.79955900  0.01707383  1
  O  O3229  1  0.87846200  0.79955900  0.18374050  1
  O  O3230  1  0.87846200  0.79955900  0.35040717  1
  O  O3231  1  0.87846200  0.79955900  0.51707383  1
  O  O3232  1  0.87846200  0.79955900  0.68374050  1
  O  O3233  1  0.87846200  0.79955900  0.85040717  1
  O  O3234  1  0.87846200  0.96622567  0.01707383  1
  O  O3235  1  0.87846200  0.96622567  0.18374050  1
  O  O3236  1  0.87846200  0.96622567  0.35040717  1
  O  O3237  1  0.87846200  0.96622567  0.51707383  1
  O  O3238  1  0.87846200  0.96622567  0.68374050  1
  O  O3239  1  0.87846200  0.96622567  0.85040717  1
  O  O3240  1  0.12153800  0.03377433  0.14959283  1
  O  O3241  1  0.12153800  0.03377433  0.31625950  1
  O  O3242  1  0.12153800  0.03377433  0.48292617  1
  O  O3243  1  0.12153800  0.03377433  0.64959283  1
  O  O3244  1  0.12153800  0.03377433  0.81625950  1
  O  O3245  1  0.12153800  0.03377433  0.98292617  1
  O  O3246  1  0.12153800  0.20044100  0.14959283  1
  O  O3247  1  0.12153800  0.20044100  0.31625950  1
  O  O3248  1  0.12153800  0.20044100  0.48292617  1
  O  O3249  1  0.12153800  0.20044100  0.64959283  1
  O  O3250  1  0.12153800  0.20044100  0.81625950  1
  O  O3251  1  0.12153800  0.20044100  0.98292617  1
  O  O3252  1  0.12153800  0.36710767  0.14959283  1
  O  O3253  1  0.12153800  0.36710767  0.31625950  1
  O  O3254  1  0.12153800  0.36710767  0.48292617  1
  O  O3255  1  0.12153800  0.36710767  0.64959283  1
  O  O3256  1  0.12153800  0.36710767  0.81625950  1
  O  O3257  1  0.12153800  0.36710767  0.98292617  1
  O  O3258  1  0.12153800  0.53377433  0.14959283  1
  O  O3259  1  0.12153800  0.53377433  0.31625950  1
  O  O3260  1  0.12153800  0.53377433  0.48292617  1
  O  O3261  1  0.12153800  0.53377433  0.64959283  1
  O  O3262  1  0.12153800  0.53377433  0.81625950  1
  O  O3263  1  0.12153800  0.53377433  0.98292617  1
  O  O3264  1  0.12153800  0.70044100  0.14959283  1
  O  O3265  1  0.12153800  0.70044100  0.31625950  1
  O  O3266  1  0.12153800  0.70044100  0.48292617  1
  O  O3267  1  0.12153800  0.70044100  0.64959283  1
  O  O3268  1  0.12153800  0.70044100  0.81625950  1
  O  O3269  1  0.12153800  0.70044100  0.98292617  1
  O  O3270  1  0.12153800  0.86710767  0.14959283  1
  O  O3271  1  0.12153800  0.86710767  0.31625950  1
  O  O3272  1  0.12153800  0.86710767  0.48292617  1
  O  O3273  1  0.12153800  0.86710767  0.64959283  1
  O  O3274  1  0.12153800  0.86710767  0.81625950  1
  O  O3275  1  0.12153800  0.86710767  0.98292617  1
  O  O3276  1  0.28820467  0.03377433  0.14959283  1
  O  O3277  1  0.28820467  0.03377433  0.31625950  1
  O  O3278  1  0.28820467  0.03377433  0.48292617  1
  O  O3279  1  0.28820467  0.03377433  0.64959283  1
  O  O3280  1  0.28820467  0.03377433  0.81625950  1
  O  O3281  1  0.28820467  0.03377433  0.98292617  1
  O  O3282  1  0.28820467  0.20044100  0.14959283  1
  O  O3283  1  0.28820467  0.20044100  0.31625950  1
  O  O3284  1  0.28820467  0.20044100  0.48292617  1
  O  O3285  1  0.28820467  0.20044100  0.64959283  1
  O  O3286  1  0.28820467  0.20044100  0.81625950  1
  O  O3287  1  0.28820467  0.20044100  0.98292617  1
  O  O3288  1  0.28820467  0.36710767  0.14959283  1
  O  O3289  1  0.28820467  0.36710767  0.31625950  1
  O  O3290  1  0.28820467  0.36710767  0.48292617  1
  O  O3291  1  0.28820467  0.36710767  0.64959283  1
  O  O3292  1  0.28820467  0.36710767  0.81625950  1
  O  O3293  1  0.28820467  0.36710767  0.98292617  1
  O  O3294  1  0.28820467  0.53377433  0.14959283  1
  O  O3295  1  0.28820467  0.53377433  0.31625950  1
  O  O3296  1  0.28820467  0.53377433  0.48292617  1
  O  O3297  1  0.28820467  0.53377433  0.64959283  1
  O  O3298  1  0.28820467  0.53377433  0.81625950  1
  O  O3299  1  0.28820467  0.53377433  0.98292617  1
  O  O3300  1  0.28820467  0.70044100  0.14959283  1
  O  O3301  1  0.28820467  0.70044100  0.31625950  1
  O  O3302  1  0.28820467  0.70044100  0.48292617  1
  O  O3303  1  0.28820467  0.70044100  0.64959283  1
  O  O3304  1  0.28820467  0.70044100  0.81625950  1
  O  O3305  1  0.28820467  0.70044100  0.98292617  1
  O  O3306  1  0.28820467  0.86710767  0.14959283  1
  O  O3307  1  0.28820467  0.86710767  0.31625950  1
  O  O3308  1  0.28820467  0.86710767  0.48292617  1
  O  O3309  1  0.28820467  0.86710767  0.64959283  1
  O  O3310  1  0.28820467  0.86710767  0.81625950  1
  O  O3311  1  0.28820467  0.86710767  0.98292617  1
  O  O3312  1  0.45487133  0.03377433  0.14959283  1
  O  O3313  1  0.45487133  0.03377433  0.31625950  1
  O  O3314  1  0.45487133  0.03377433  0.48292617  1
  O  O3315  1  0.45487133  0.03377433  0.64959283  1
  O  O3316  1  0.45487133  0.03377433  0.81625950  1
  O  O3317  1  0.45487133  0.03377433  0.98292617  1
  O  O3318  1  0.45487133  0.20044100  0.14959283  1
  O  O3319  1  0.45487133  0.20044100  0.31625950  1
  O  O3320  1  0.45487133  0.20044100  0.48292617  1
  O  O3321  1  0.45487133  0.20044100  0.64959283  1
  O  O3322  1  0.45487133  0.20044100  0.81625950  1
  O  O3323  1  0.45487133  0.20044100  0.98292617  1
  O  O3324  1  0.45487133  0.36710767  0.14959283  1
  O  O3325  1  0.45487133  0.36710767  0.31625950  1
  O  O3326  1  0.45487133  0.36710767  0.48292617  1
  O  O3327  1  0.45487133  0.36710767  0.64959283  1
  O  O3328  1  0.45487133  0.36710767  0.81625950  1
  O  O3329  1  0.45487133  0.36710767  0.98292617  1
  O  O3330  1  0.45487133  0.53377433  0.14959283  1
  O  O3331  1  0.45487133  0.53377433  0.31625950  1
  O  O3332  1  0.45487133  0.53377433  0.48292617  1
  O  O3333  1  0.45487133  0.53377433  0.64959283  1
  O  O3334  1  0.45487133  0.53377433  0.81625950  1
  O  O3335  1  0.45487133  0.53377433  0.98292617  1
  O  O3336  1  0.45487133  0.70044100  0.14959283  1
  O  O3337  1  0.45487133  0.70044100  0.31625950  1
  O  O3338  1  0.45487133  0.70044100  0.48292617  1
  O  O3339  1  0.45487133  0.70044100  0.64959283  1
  O  O3340  1  0.45487133  0.70044100  0.81625950  1
  O  O3341  1  0.45487133  0.70044100  0.98292617  1
  O  O3342  1  0.45487133  0.86710767  0.14959283  1
  O  O3343  1  0.45487133  0.86710767  0.31625950  1
  O  O3344  1  0.45487133  0.86710767  0.48292617  1
  O  O3345  1  0.45487133  0.86710767  0.64959283  1
  O  O3346  1  0.45487133  0.86710767  0.81625950  1
  O  O3347  1  0.45487133  0.86710767  0.98292617  1
  O  O3348  1  0.62153800  0.03377433  0.14959283  1
  O  O3349  1  0.62153800  0.03377433  0.31625950  1
  O  O3350  1  0.62153800  0.03377433  0.48292617  1
  O  O3351  1  0.62153800  0.03377433  0.64959283  1
  O  O3352  1  0.62153800  0.03377433  0.81625950  1
  O  O3353  1  0.62153800  0.03377433  0.98292617  1
  O  O3354  1  0.62153800  0.20044100  0.14959283  1
  O  O3355  1  0.62153800  0.20044100  0.31625950  1
  O  O3356  1  0.62153800  0.20044100  0.48292617  1
  O  O3357  1  0.62153800  0.20044100  0.64959283  1
  O  O3358  1  0.62153800  0.20044100  0.81625950  1
  O  O3359  1  0.62153800  0.20044100  0.98292617  1
  O  O3360  1  0.62153800  0.36710767  0.14959283  1
  O  O3361  1  0.62153800  0.36710767  0.31625950  1
  O  O3362  1  0.62153800  0.36710767  0.48292617  1
  O  O3363  1  0.62153800  0.36710767  0.64959283  1
  O  O3364  1  0.62153800  0.36710767  0.81625950  1
  O  O3365  1  0.62153800  0.36710767  0.98292617  1
  O  O3366  1  0.62153800  0.53377433  0.14959283  1
  O  O3367  1  0.62153800  0.53377433  0.31625950  1
  O  O3368  1  0.62153800  0.53377433  0.48292617  1
  O  O3369  1  0.62153800  0.53377433  0.64959283  1
  O  O3370  1  0.62153800  0.53377433  0.81625950  1
  O  O3371  1  0.62153800  0.53377433  0.98292617  1
  O  O3372  1  0.62153800  0.70044100  0.14959283  1
  O  O3373  1  0.62153800  0.70044100  0.31625950  1
  O  O3374  1  0.62153800  0.70044100  0.48292617  1
  O  O3375  1  0.62153800  0.70044100  0.64959283  1
  O  O3376  1  0.62153800  0.70044100  0.81625950  1
  O  O3377  1  0.62153800  0.70044100  0.98292617  1
  O  O3378  1  0.62153800  0.86710767  0.14959283  1
  O  O3379  1  0.62153800  0.86710767  0.31625950  1
  O  O3380  1  0.62153800  0.86710767  0.48292617  1
  O  O3381  1  0.62153800  0.86710767  0.64959283  1
  O  O3382  1  0.62153800  0.86710767  0.81625950  1
  O  O3383  1  0.62153800  0.86710767  0.98292617  1
  O  O3384  1  0.78820467  0.03377433  0.14959283  1
  O  O3385  1  0.78820467  0.03377433  0.31625950  1
  O  O3386  1  0.78820467  0.03377433  0.48292617  1
  O  O3387  1  0.78820467  0.03377433  0.64959283  1
  O  O3388  1  0.78820467  0.03377433  0.81625950  1
  O  O3389  1  0.78820467  0.03377433  0.98292617  1
  O  O3390  1  0.78820467  0.20044100  0.14959283  1
  O  O3391  1  0.78820467  0.20044100  0.31625950  1
  O  O3392  1  0.78820467  0.20044100  0.48292617  1
  O  O3393  1  0.78820467  0.20044100  0.64959283  1
  O  O3394  1  0.78820467  0.20044100  0.81625950  1
  O  O3395  1  0.78820467  0.20044100  0.98292617  1
  O  O3396  1  0.78820467  0.36710767  0.14959283  1
  O  O3397  1  0.78820467  0.36710767  0.31625950  1
  O  O3398  1  0.78820467  0.36710767  0.48292617  1
  O  O3399  1  0.78820467  0.36710767  0.64959283  1
  O  O3400  1  0.78820467  0.36710767  0.81625950  1
  O  O3401  1  0.78820467  0.36710767  0.98292617  1
  O  O3402  1  0.78820467  0.53377433  0.14959283  1
  O  O3403  1  0.78820467  0.53377433  0.31625950  1
  O  O3404  1  0.78820467  0.53377433  0.48292617  1
  O  O3405  1  0.78820467  0.53377433  0.64959283  1
  O  O3406  1  0.78820467  0.53377433  0.81625950  1
  O  O3407  1  0.78820467  0.53377433  0.98292617  1
  O  O3408  1  0.78820467  0.70044100  0.14959283  1
  O  O3409  1  0.78820467  0.70044100  0.31625950  1
  O  O3410  1  0.78820467  0.70044100  0.48292617  1
  O  O3411  1  0.78820467  0.70044100  0.64959283  1
  O  O3412  1  0.78820467  0.70044100  0.81625950  1
  O  O3413  1  0.78820467  0.70044100  0.98292617  1
  O  O3414  1  0.78820467  0.86710767  0.14959283  1
  O  O3415  1  0.78820467  0.86710767  0.31625950  1
  O  O3416  1  0.78820467  0.86710767  0.48292617  1
  O  O3417  1  0.78820467  0.86710767  0.64959283  1
  O  O3418  1  0.78820467  0.86710767  0.81625950  1
  O  O3419  1  0.78820467  0.86710767  0.98292617  1
  O  O3420  1  0.95487133  0.03377433  0.14959283  1
  O  O3421  1  0.95487133  0.03377433  0.31625950  1
  O  O3422  1  0.95487133  0.03377433  0.48292617  1
  O  O3423  1  0.95487133  0.03377433  0.64959283  1
  O  O3424  1  0.95487133  0.03377433  0.81625950  1
  O  O3425  1  0.95487133  0.03377433  0.98292617  1
  O  O3426  1  0.95487133  0.20044100  0.14959283  1
  O  O3427  1  0.95487133  0.20044100  0.31625950  1
  O  O3428  1  0.95487133  0.20044100  0.48292617  1
  O  O3429  1  0.95487133  0.20044100  0.64959283  1
  O  O3430  1  0.95487133  0.20044100  0.81625950  1
  O  O3431  1  0.95487133  0.20044100  0.98292617  1
  O  O3432  1  0.95487133  0.36710767  0.14959283  1
  O  O3433  1  0.95487133  0.36710767  0.31625950  1
  O  O3434  1  0.95487133  0.36710767  0.48292617  1
  O  O3435  1  0.95487133  0.36710767  0.64959283  1
  O  O3436  1  0.95487133  0.36710767  0.81625950  1
  O  O3437  1  0.95487133  0.36710767  0.98292617  1
  O  O3438  1  0.95487133  0.53377433  0.14959283  1
  O  O3439  1  0.95487133  0.53377433  0.31625950  1
  O  O3440  1  0.95487133  0.53377433  0.48292617  1
  O  O3441  1  0.95487133  0.53377433  0.64959283  1
  O  O3442  1  0.95487133  0.53377433  0.81625950  1
  O  O3443  1  0.95487133  0.53377433  0.98292617  1
  O  O3444  1  0.95487133  0.70044100  0.14959283  1
  O  O3445  1  0.95487133  0.70044100  0.31625950  1
  O  O3446  1  0.95487133  0.70044100  0.48292617  1
  O  O3447  1  0.95487133  0.70044100  0.64959283  1
  O  O3448  1  0.95487133  0.70044100  0.81625950  1
  O  O3449  1  0.95487133  0.70044100  0.98292617  1
  O  O3450  1  0.95487133  0.86710767  0.14959283  1
  O  O3451  1  0.95487133  0.86710767  0.31625950  1
  O  O3452  1  0.95487133  0.86710767  0.48292617  1
  O  O3453  1  0.95487133  0.86710767  0.64959283  1
  O  O3454  1  0.95487133  0.86710767  0.81625950  1
  O  O3455  1  0.95487133  0.86710767  0.98292617  1
  O  O3456  1  0.05943367  0.10685917  0.06506267  1
  O  O3457  1  0.05943367  0.10685917  0.23172933  1
  O  O3458  1  0.05943367  0.10685917  0.39839600  1
  O  O3459  1  0.05943367  0.10685917  0.56506267  1
  O  O3460  1  0.05943367  0.10685917  0.73172933  1
  O  O3461  1  0.05943367  0.10685917  0.89839600  1
  O  O3462  1  0.05943367  0.27352583  0.06506267  1
  O  O3463  1  0.05943367  0.27352583  0.23172933  1
  O  O3464  1  0.05943367  0.27352583  0.39839600  1
  O  O3465  1  0.05943367  0.27352583  0.56506267  1
  O  O3466  1  0.05943367  0.27352583  0.73172933  1
  O  O3467  1  0.05943367  0.27352583  0.89839600  1
  O  O3468  1  0.05943367  0.44019250  0.06506267  1
  O  O3469  1  0.05943367  0.44019250  0.23172933  1
  O  O3470  1  0.05943367  0.44019250  0.39839600  1
  O  O3471  1  0.05943367  0.44019250  0.56506267  1
  O  O3472  1  0.05943367  0.44019250  0.73172933  1
  O  O3473  1  0.05943367  0.44019250  0.89839600  1
  O  O3474  1  0.05943367  0.60685917  0.06506267  1
  O  O3475  1  0.05943367  0.60685917  0.23172933  1
  O  O3476  1  0.05943367  0.60685917  0.39839600  1
  O  O3477  1  0.05943367  0.60685917  0.56506267  1
  O  O3478  1  0.05943367  0.60685917  0.73172933  1
  O  O3479  1  0.05943367  0.60685917  0.89839600  1
  O  O3480  1  0.05943367  0.77352583  0.06506267  1
  O  O3481  1  0.05943367  0.77352583  0.23172933  1
  O  O3482  1  0.05943367  0.77352583  0.39839600  1
  O  O3483  1  0.05943367  0.77352583  0.56506267  1
  O  O3484  1  0.05943367  0.77352583  0.73172933  1
  O  O3485  1  0.05943367  0.77352583  0.89839600  1
  O  O3486  1  0.05943367  0.94019250  0.06506267  1
  O  O3487  1  0.05943367  0.94019250  0.23172933  1
  O  O3488  1  0.05943367  0.94019250  0.39839600  1
  O  O3489  1  0.05943367  0.94019250  0.56506267  1
  O  O3490  1  0.05943367  0.94019250  0.73172933  1
  O  O3491  1  0.05943367  0.94019250  0.89839600  1
  O  O3492  1  0.22610033  0.10685917  0.06506267  1
  O  O3493  1  0.22610033  0.10685917  0.23172933  1
  O  O3494  1  0.22610033  0.10685917  0.39839600  1
  O  O3495  1  0.22610033  0.10685917  0.56506267  1
  O  O3496  1  0.22610033  0.10685917  0.73172933  1
  O  O3497  1  0.22610033  0.10685917  0.89839600  1
  O  O3498  1  0.22610033  0.27352583  0.06506267  1
  O  O3499  1  0.22610033  0.27352583  0.23172933  1
  O  O3500  1  0.22610033  0.27352583  0.39839600  1
  O  O3501  1  0.22610033  0.27352583  0.56506267  1
  O  O3502  1  0.22610033  0.27352583  0.73172933  1
  O  O3503  1  0.22610033  0.27352583  0.89839600  1
  O  O3504  1  0.22610033  0.44019250  0.06506267  1
  O  O3505  1  0.22610033  0.44019250  0.23172933  1
  O  O3506  1  0.22610033  0.44019250  0.39839600  1
  O  O3507  1  0.22610033  0.44019250  0.56506267  1
  O  O3508  1  0.22610033  0.44019250  0.73172933  1
  O  O3509  1  0.22610033  0.44019250  0.89839600  1
  O  O3510  1  0.22610033  0.60685917  0.06506267  1
  O  O3511  1  0.22610033  0.60685917  0.23172933  1
  O  O3512  1  0.22610033  0.60685917  0.39839600  1
  O  O3513  1  0.22610033  0.60685917  0.56506267  1
  O  O3514  1  0.22610033  0.60685917  0.73172933  1
  O  O3515  1  0.22610033  0.60685917  0.89839600  1
  O  O3516  1  0.22610033  0.77352583  0.06506267  1
  O  O3517  1  0.22610033  0.77352583  0.23172933  1
  O  O3518  1  0.22610033  0.77352583  0.39839600  1
  O  O3519  1  0.22610033  0.77352583  0.56506267  1
  O  O3520  1  0.22610033  0.77352583  0.73172933  1
  O  O3521  1  0.22610033  0.77352583  0.89839600  1
  O  O3522  1  0.22610033  0.94019250  0.06506267  1
  O  O3523  1  0.22610033  0.94019250  0.23172933  1
  O  O3524  1  0.22610033  0.94019250  0.39839600  1
  O  O3525  1  0.22610033  0.94019250  0.56506267  1
  O  O3526  1  0.22610033  0.94019250  0.73172933  1
  O  O3527  1  0.22610033  0.94019250  0.89839600  1
  O  O3528  1  0.39276700  0.10685917  0.06506267  1
  O  O3529  1  0.39276700  0.10685917  0.23172933  1
  O  O3530  1  0.39276700  0.10685917  0.39839600  1
  O  O3531  1  0.39276700  0.10685917  0.56506267  1
  O  O3532  1  0.39276700  0.10685917  0.73172933  1
  O  O3533  1  0.39276700  0.10685917  0.89839600  1
  O  O3534  1  0.39276700  0.27352583  0.06506267  1
  O  O3535  1  0.39276700  0.27352583  0.23172933  1
  O  O3536  1  0.39276700  0.27352583  0.39839600  1
  O  O3537  1  0.39276700  0.27352583  0.56506267  1
  O  O3538  1  0.39276700  0.27352583  0.73172933  1
  O  O3539  1  0.39276700  0.27352583  0.89839600  1
  O  O3540  1  0.39276700  0.44019250  0.06506267  1
  O  O3541  1  0.39276700  0.44019250  0.23172933  1
  O  O3542  1  0.39276700  0.44019250  0.39839600  1
  O  O3543  1  0.39276700  0.44019250  0.56506267  1
  O  O3544  1  0.39276700  0.44019250  0.73172933  1
  O  O3545  1  0.39276700  0.44019250  0.89839600  1
  O  O3546  1  0.39276700  0.60685917  0.06506267  1
  O  O3547  1  0.39276700  0.60685917  0.23172933  1
  O  O3548  1  0.39276700  0.60685917  0.39839600  1
  O  O3549  1  0.39276700  0.60685917  0.56506267  1
  O  O3550  1  0.39276700  0.60685917  0.73172933  1
  O  O3551  1  0.39276700  0.60685917  0.89839600  1
  O  O3552  1  0.39276700  0.77352583  0.06506267  1
  O  O3553  1  0.39276700  0.77352583  0.23172933  1
  O  O3554  1  0.39276700  0.77352583  0.39839600  1
  O  O3555  1  0.39276700  0.77352583  0.56506267  1
  O  O3556  1  0.39276700  0.77352583  0.73172933  1
  O  O3557  1  0.39276700  0.77352583  0.89839600  1
  O  O3558  1  0.39276700  0.94019250  0.06506267  1
  O  O3559  1  0.39276700  0.94019250  0.23172933  1
  O  O3560  1  0.39276700  0.94019250  0.39839600  1
  O  O3561  1  0.39276700  0.94019250  0.56506267  1
  O  O3562  1  0.39276700  0.94019250  0.73172933  1
  O  O3563  1  0.39276700  0.94019250  0.89839600  1
  O  O3564  1  0.55943367  0.10685917  0.06506267  1
  O  O3565  1  0.55943367  0.10685917  0.23172933  1
  O  O3566  1  0.55943367  0.10685917  0.39839600  1
  O  O3567  1  0.55943367  0.10685917  0.56506267  1
  O  O3568  1  0.55943367  0.10685917  0.73172933  1
  O  O3569  1  0.55943367  0.10685917  0.89839600  1
  O  O3570  1  0.55943367  0.27352583  0.06506267  1
  O  O3571  1  0.55943367  0.27352583  0.23172933  1
  O  O3572  1  0.55943367  0.27352583  0.39839600  1
  O  O3573  1  0.55943367  0.27352583  0.56506267  1
  O  O3574  1  0.55943367  0.27352583  0.73172933  1
  O  O3575  1  0.55943367  0.27352583  0.89839600  1
  O  O3576  1  0.55943367  0.44019250  0.06506267  1
  O  O3577  1  0.55943367  0.44019250  0.23172933  1
  O  O3578  1  0.55943367  0.44019250  0.39839600  1
  O  O3579  1  0.55943367  0.44019250  0.56506267  1
  O  O3580  1  0.55943367  0.44019250  0.73172933  1
  O  O3581  1  0.55943367  0.44019250  0.89839600  1
  O  O3582  1  0.55943367  0.60685917  0.06506267  1
  O  O3583  1  0.55943367  0.60685917  0.23172933  1
  O  O3584  1  0.55943367  0.60685917  0.39839600  1
  O  O3585  1  0.55943367  0.60685917  0.56506267  1
  O  O3586  1  0.55943367  0.60685917  0.73172933  1
  O  O3587  1  0.55943367  0.60685917  0.89839600  1
  O  O3588  1  0.55943367  0.77352583  0.06506267  1
  O  O3589  1  0.55943367  0.77352583  0.23172933  1
  O  O3590  1  0.55943367  0.77352583  0.39839600  1
  O  O3591  1  0.55943367  0.77352583  0.56506267  1
  O  O3592  1  0.55943367  0.77352583  0.73172933  1
  O  O3593  1  0.55943367  0.77352583  0.89839600  1
  O  O3594  1  0.55943367  0.94019250  0.06506267  1
  O  O3595  1  0.55943367  0.94019250  0.23172933  1
  O  O3596  1  0.55943367  0.94019250  0.39839600  1
  O  O3597  1  0.55943367  0.94019250  0.56506267  1
  O  O3598  1  0.55943367  0.94019250  0.73172933  1
  O  O3599  1  0.55943367  0.94019250  0.89839600  1
  O  O3600  1  0.72610033  0.10685917  0.06506267  1
  O  O3601  1  0.72610033  0.10685917  0.23172933  1
  O  O3602  1  0.72610033  0.10685917  0.39839600  1
  O  O3603  1  0.72610033  0.10685917  0.56506267  1
  O  O3604  1  0.72610033  0.10685917  0.73172933  1
  O  O3605  1  0.72610033  0.10685917  0.89839600  1
  O  O3606  1  0.72610033  0.27352583  0.06506267  1
  O  O3607  1  0.72610033  0.27352583  0.23172933  1
  O  O3608  1  0.72610033  0.27352583  0.39839600  1
  O  O3609  1  0.72610033  0.27352583  0.56506267  1
  O  O3610  1  0.72610033  0.27352583  0.73172933  1
  O  O3611  1  0.72610033  0.27352583  0.89839600  1
  O  O3612  1  0.72610033  0.44019250  0.06506267  1
  O  O3613  1  0.72610033  0.44019250  0.23172933  1
  O  O3614  1  0.72610033  0.44019250  0.39839600  1
  O  O3615  1  0.72610033  0.44019250  0.56506267  1
  O  O3616  1  0.72610033  0.44019250  0.73172933  1
  O  O3617  1  0.72610033  0.44019250  0.89839600  1
  O  O3618  1  0.72610033  0.60685917  0.06506267  1
  O  O3619  1  0.72610033  0.60685917  0.23172933  1
  O  O3620  1  0.72610033  0.60685917  0.39839600  1
  O  O3621  1  0.72610033  0.60685917  0.56506267  1
  O  O3622  1  0.72610033  0.60685917  0.73172933  1
  O  O3623  1  0.72610033  0.60685917  0.89839600  1
  O  O3624  1  0.72610033  0.77352583  0.06506267  1
  O  O3625  1  0.72610033  0.77352583  0.23172933  1
  O  O3626  1  0.72610033  0.77352583  0.39839600  1
  O  O3627  1  0.72610033  0.77352583  0.56506267  1
  O  O3628  1  0.72610033  0.77352583  0.73172933  1
  O  O3629  1  0.72610033  0.77352583  0.89839600  1
  O  O3630  1  0.72610033  0.94019250  0.06506267  1
  O  O3631  1  0.72610033  0.94019250  0.23172933  1
  O  O3632  1  0.72610033  0.94019250  0.39839600  1
  O  O3633  1  0.72610033  0.94019250  0.56506267  1
  O  O3634  1  0.72610033  0.94019250  0.73172933  1
  O  O3635  1  0.72610033  0.94019250  0.89839600  1
  O  O3636  1  0.89276700  0.10685917  0.06506267  1
  O  O3637  1  0.89276700  0.10685917  0.23172933  1
  O  O3638  1  0.89276700  0.10685917  0.39839600  1
  O  O3639  1  0.89276700  0.10685917  0.56506267  1
  O  O3640  1  0.89276700  0.10685917  0.73172933  1
  O  O3641  1  0.89276700  0.10685917  0.89839600  1
  O  O3642  1  0.89276700  0.27352583  0.06506267  1
  O  O3643  1  0.89276700  0.27352583  0.23172933  1
  O  O3644  1  0.89276700  0.27352583  0.39839600  1
  O  O3645  1  0.89276700  0.27352583  0.56506267  1
  O  O3646  1  0.89276700  0.27352583  0.73172933  1
  O  O3647  1  0.89276700  0.27352583  0.89839600  1
  O  O3648  1  0.89276700  0.44019250  0.06506267  1
  O  O3649  1  0.89276700  0.44019250  0.23172933  1
  O  O3650  1  0.89276700  0.44019250  0.39839600  1
  O  O3651  1  0.89276700  0.44019250  0.56506267  1
  O  O3652  1  0.89276700  0.44019250  0.73172933  1
  O  O3653  1  0.89276700  0.44019250  0.89839600  1
  O  O3654  1  0.89276700  0.60685917  0.06506267  1
  O  O3655  1  0.89276700  0.60685917  0.23172933  1
  O  O3656  1  0.89276700  0.60685917  0.39839600  1
  O  O3657  1  0.89276700  0.60685917  0.56506267  1
  O  O3658  1  0.89276700  0.60685917  0.73172933  1
  O  O3659  1  0.89276700  0.60685917  0.89839600  1
  O  O3660  1  0.89276700  0.77352583  0.06506267  1
  O  O3661  1  0.89276700  0.77352583  0.23172933  1
  O  O3662  1  0.89276700  0.77352583  0.39839600  1
  O  O3663  1  0.89276700  0.77352583  0.56506267  1
  O  O3664  1  0.89276700  0.77352583  0.73172933  1
  O  O3665  1  0.89276700  0.77352583  0.89839600  1
  O  O3666  1  0.89276700  0.94019250  0.06506267  1
  O  O3667  1  0.89276700  0.94019250  0.23172933  1
  O  O3668  1  0.89276700  0.94019250  0.39839600  1
  O  O3669  1  0.89276700  0.94019250  0.56506267  1
  O  O3670  1  0.89276700  0.94019250  0.73172933  1
  O  O3671  1  0.89276700  0.94019250  0.89839600  1
  O  O3672  1  0.10723300  0.05980750  0.10160400  1
  O  O3673  1  0.10723300  0.05980750  0.26827067  1
  O  O3674  1  0.10723300  0.05980750  0.43493733  1
  O  O3675  1  0.10723300  0.05980750  0.60160400  1
  O  O3676  1  0.10723300  0.05980750  0.76827067  1
  O  O3677  1  0.10723300  0.05980750  0.93493733  1
  O  O3678  1  0.10723300  0.22647417  0.10160400  1
  O  O3679  1  0.10723300  0.22647417  0.26827067  1
  O  O3680  1  0.10723300  0.22647417  0.43493733  1
  O  O3681  1  0.10723300  0.22647417  0.60160400  1
  O  O3682  1  0.10723300  0.22647417  0.76827067  1
  O  O3683  1  0.10723300  0.22647417  0.93493733  1
  O  O3684  1  0.10723300  0.39314083  0.10160400  1
  O  O3685  1  0.10723300  0.39314083  0.26827067  1
  O  O3686  1  0.10723300  0.39314083  0.43493733  1
  O  O3687  1  0.10723300  0.39314083  0.60160400  1
  O  O3688  1  0.10723300  0.39314083  0.76827067  1
  O  O3689  1  0.10723300  0.39314083  0.93493733  1
  O  O3690  1  0.10723300  0.55980750  0.10160400  1
  O  O3691  1  0.10723300  0.55980750  0.26827067  1
  O  O3692  1  0.10723300  0.55980750  0.43493733  1
  O  O3693  1  0.10723300  0.55980750  0.60160400  1
  O  O3694  1  0.10723300  0.55980750  0.76827067  1
  O  O3695  1  0.10723300  0.55980750  0.93493733  1
  O  O3696  1  0.10723300  0.72647417  0.10160400  1
  O  O3697  1  0.10723300  0.72647417  0.26827067  1
  O  O3698  1  0.10723300  0.72647417  0.43493733  1
  O  O3699  1  0.10723300  0.72647417  0.60160400  1
  O  O3700  1  0.10723300  0.72647417  0.76827067  1
  O  O3701  1  0.10723300  0.72647417  0.93493733  1
  O  O3702  1  0.10723300  0.89314083  0.10160400  1
  O  O3703  1  0.10723300  0.89314083  0.26827067  1
  O  O3704  1  0.10723300  0.89314083  0.43493733  1
  O  O3705  1  0.10723300  0.89314083  0.60160400  1
  O  O3706  1  0.10723300  0.89314083  0.76827067  1
  O  O3707  1  0.10723300  0.89314083  0.93493733  1
  O  O3708  1  0.27389967  0.05980750  0.10160400  1
  O  O3709  1  0.27389967  0.05980750  0.26827067  1
  O  O3710  1  0.27389967  0.05980750  0.43493733  1
  O  O3711  1  0.27389967  0.05980750  0.60160400  1
  O  O3712  1  0.27389967  0.05980750  0.76827067  1
  O  O3713  1  0.27389967  0.05980750  0.93493733  1
  O  O3714  1  0.27389967  0.22647417  0.10160400  1
  O  O3715  1  0.27389967  0.22647417  0.26827067  1
  O  O3716  1  0.27389967  0.22647417  0.43493733  1
  O  O3717  1  0.27389967  0.22647417  0.60160400  1
  O  O3718  1  0.27389967  0.22647417  0.76827067  1
  O  O3719  1  0.27389967  0.22647417  0.93493733  1
  O  O3720  1  0.27389967  0.39314083  0.10160400  1
  O  O3721  1  0.27389967  0.39314083  0.26827067  1
  O  O3722  1  0.27389967  0.39314083  0.43493733  1
  O  O3723  1  0.27389967  0.39314083  0.60160400  1
  O  O3724  1  0.27389967  0.39314083  0.76827067  1
  O  O3725  1  0.27389967  0.39314083  0.93493733  1
  O  O3726  1  0.27389967  0.55980750  0.10160400  1
  O  O3727  1  0.27389967  0.55980750  0.26827067  1
  O  O3728  1  0.27389967  0.55980750  0.43493733  1
  O  O3729  1  0.27389967  0.55980750  0.60160400  1
  O  O3730  1  0.27389967  0.55980750  0.76827067  1
  O  O3731  1  0.27389967  0.55980750  0.93493733  1
  O  O3732  1  0.27389967  0.72647417  0.10160400  1
  O  O3733  1  0.27389967  0.72647417  0.26827067  1
  O  O3734  1  0.27389967  0.72647417  0.43493733  1
  O  O3735  1  0.27389967  0.72647417  0.60160400  1
  O  O3736  1  0.27389967  0.72647417  0.76827067  1
  O  O3737  1  0.27389967  0.72647417  0.93493733  1
  O  O3738  1  0.27389967  0.89314083  0.10160400  1
  O  O3739  1  0.27389967  0.89314083  0.26827067  1
  O  O3740  1  0.27389967  0.89314083  0.43493733  1
  O  O3741  1  0.27389967  0.89314083  0.60160400  1
  O  O3742  1  0.27389967  0.89314083  0.76827067  1
  O  O3743  1  0.27389967  0.89314083  0.93493733  1
  O  O3744  1  0.44056633  0.05980750  0.10160400  1
  O  O3745  1  0.44056633  0.05980750  0.26827067  1
  O  O3746  1  0.44056633  0.05980750  0.43493733  1
  O  O3747  1  0.44056633  0.05980750  0.60160400  1
  O  O3748  1  0.44056633  0.05980750  0.76827067  1
  O  O3749  1  0.44056633  0.05980750  0.93493733  1
  O  O3750  1  0.44056633  0.22647417  0.10160400  1
  O  O3751  1  0.44056633  0.22647417  0.26827067  1
  O  O3752  1  0.44056633  0.22647417  0.43493733  1
  O  O3753  1  0.44056633  0.22647417  0.60160400  1
  O  O3754  1  0.44056633  0.22647417  0.76827067  1
  O  O3755  1  0.44056633  0.22647417  0.93493733  1
  O  O3756  1  0.44056633  0.39314083  0.10160400  1
  O  O3757  1  0.44056633  0.39314083  0.26827067  1
  O  O3758  1  0.44056633  0.39314083  0.43493733  1
  O  O3759  1  0.44056633  0.39314083  0.60160400  1
  O  O3760  1  0.44056633  0.39314083  0.76827067  1
  O  O3761  1  0.44056633  0.39314083  0.93493733  1
  O  O3762  1  0.44056633  0.55980750  0.10160400  1
  O  O3763  1  0.44056633  0.55980750  0.26827067  1
  O  O3764  1  0.44056633  0.55980750  0.43493733  1
  O  O3765  1  0.44056633  0.55980750  0.60160400  1
  O  O3766  1  0.44056633  0.55980750  0.76827067  1
  O  O3767  1  0.44056633  0.55980750  0.93493733  1
  O  O3768  1  0.44056633  0.72647417  0.10160400  1
  O  O3769  1  0.44056633  0.72647417  0.26827067  1
  O  O3770  1  0.44056633  0.72647417  0.43493733  1
  O  O3771  1  0.44056633  0.72647417  0.60160400  1
  O  O3772  1  0.44056633  0.72647417  0.76827067  1
  O  O3773  1  0.44056633  0.72647417  0.93493733  1
  O  O3774  1  0.44056633  0.89314083  0.10160400  1
  O  O3775  1  0.44056633  0.89314083  0.26827067  1
  O  O3776  1  0.44056633  0.89314083  0.43493733  1
  O  O3777  1  0.44056633  0.89314083  0.60160400  1
  O  O3778  1  0.44056633  0.89314083  0.76827067  1
  O  O3779  1  0.44056633  0.89314083  0.93493733  1
  O  O3780  1  0.60723300  0.05980750  0.10160400  1
  O  O3781  1  0.60723300  0.05980750  0.26827067  1
  O  O3782  1  0.60723300  0.05980750  0.43493733  1
  O  O3783  1  0.60723300  0.05980750  0.60160400  1
  O  O3784  1  0.60723300  0.05980750  0.76827067  1
  O  O3785  1  0.60723300  0.05980750  0.93493733  1
  O  O3786  1  0.60723300  0.22647417  0.10160400  1
  O  O3787  1  0.60723300  0.22647417  0.26827067  1
  O  O3788  1  0.60723300  0.22647417  0.43493733  1
  O  O3789  1  0.60723300  0.22647417  0.60160400  1
  O  O3790  1  0.60723300  0.22647417  0.76827067  1
  O  O3791  1  0.60723300  0.22647417  0.93493733  1
  O  O3792  1  0.60723300  0.39314083  0.10160400  1
  O  O3793  1  0.60723300  0.39314083  0.26827067  1
  O  O3794  1  0.60723300  0.39314083  0.43493733  1
  O  O3795  1  0.60723300  0.39314083  0.60160400  1
  O  O3796  1  0.60723300  0.39314083  0.76827067  1
  O  O3797  1  0.60723300  0.39314083  0.93493733  1
  O  O3798  1  0.60723300  0.55980750  0.10160400  1
  O  O3799  1  0.60723300  0.55980750  0.26827067  1
  O  O3800  1  0.60723300  0.55980750  0.43493733  1
  O  O3801  1  0.60723300  0.55980750  0.60160400  1
  O  O3802  1  0.60723300  0.55980750  0.76827067  1
  O  O3803  1  0.60723300  0.55980750  0.93493733  1
  O  O3804  1  0.60723300  0.72647417  0.10160400  1
  O  O3805  1  0.60723300  0.72647417  0.26827067  1
  O  O3806  1  0.60723300  0.72647417  0.43493733  1
  O  O3807  1  0.60723300  0.72647417  0.60160400  1
  O  O3808  1  0.60723300  0.72647417  0.76827067  1
  O  O3809  1  0.60723300  0.72647417  0.93493733  1
  O  O3810  1  0.60723300  0.89314083  0.10160400  1
  O  O3811  1  0.60723300  0.89314083  0.26827067  1
  O  O3812  1  0.60723300  0.89314083  0.43493733  1
  O  O3813  1  0.60723300  0.89314083  0.60160400  1
  O  O3814  1  0.60723300  0.89314083  0.76827067  1
  O  O3815  1  0.60723300  0.89314083  0.93493733  1
  O  O3816  1  0.77389967  0.05980750  0.10160400  1
  O  O3817  1  0.77389967  0.05980750  0.26827067  1
  O  O3818  1  0.77389967  0.05980750  0.43493733  1
  O  O3819  1  0.77389967  0.05980750  0.60160400  1
  O  O3820  1  0.77389967  0.05980750  0.76827067  1
  O  O3821  1  0.77389967  0.05980750  0.93493733  1
  O  O3822  1  0.77389967  0.22647417  0.10160400  1
  O  O3823  1  0.77389967  0.22647417  0.26827067  1
  O  O3824  1  0.77389967  0.22647417  0.43493733  1
  O  O3825  1  0.77389967  0.22647417  0.60160400  1
  O  O3826  1  0.77389967  0.22647417  0.76827067  1
  O  O3827  1  0.77389967  0.22647417  0.93493733  1
  O  O3828  1  0.77389967  0.39314083  0.10160400  1
  O  O3829  1  0.77389967  0.39314083  0.26827067  1
  O  O3830  1  0.77389967  0.39314083  0.43493733  1
  O  O3831  1  0.77389967  0.39314083  0.60160400  1
  O  O3832  1  0.77389967  0.39314083  0.76827067  1
  O  O3833  1  0.77389967  0.39314083  0.93493733  1
  O  O3834  1  0.77389967  0.55980750  0.10160400  1
  O  O3835  1  0.77389967  0.55980750  0.26827067  1
  O  O3836  1  0.77389967  0.55980750  0.43493733  1
  O  O3837  1  0.77389967  0.55980750  0.60160400  1
  O  O3838  1  0.77389967  0.55980750  0.76827067  1
  O  O3839  1  0.77389967  0.55980750  0.93493733  1
  O  O3840  1  0.77389967  0.72647417  0.10160400  1
  O  O3841  1  0.77389967  0.72647417  0.26827067  1
  O  O3842  1  0.77389967  0.72647417  0.43493733  1
  O  O3843  1  0.77389967  0.72647417  0.60160400  1
  O  O3844  1  0.77389967  0.72647417  0.76827067  1
  O  O3845  1  0.77389967  0.72647417  0.93493733  1
  O  O3846  1  0.77389967  0.89314083  0.10160400  1
  O  O3847  1  0.77389967  0.89314083  0.26827067  1
  O  O3848  1  0.77389967  0.89314083  0.43493733  1
  O  O3849  1  0.77389967  0.89314083  0.60160400  1
  O  O3850  1  0.77389967  0.89314083  0.76827067  1
  O  O3851  1  0.77389967  0.89314083  0.93493733  1
  O  O3852  1  0.94056633  0.05980750  0.10160400  1
  O  O3853  1  0.94056633  0.05980750  0.26827067  1
  O  O3854  1  0.94056633  0.05980750  0.43493733  1
  O  O3855  1  0.94056633  0.05980750  0.60160400  1
  O  O3856  1  0.94056633  0.05980750  0.76827067  1
  O  O3857  1  0.94056633  0.05980750  0.93493733  1
  O  O3858  1  0.94056633  0.22647417  0.10160400  1
  O  O3859  1  0.94056633  0.22647417  0.26827067  1
  O  O3860  1  0.94056633  0.22647417  0.43493733  1
  O  O3861  1  0.94056633  0.22647417  0.60160400  1
  O  O3862  1  0.94056633  0.22647417  0.76827067  1
  O  O3863  1  0.94056633  0.22647417  0.93493733  1
  O  O3864  1  0.94056633  0.39314083  0.10160400  1
  O  O3865  1  0.94056633  0.39314083  0.26827067  1
  O  O3866  1  0.94056633  0.39314083  0.43493733  1
  O  O3867  1  0.94056633  0.39314083  0.60160400  1
  O  O3868  1  0.94056633  0.39314083  0.76827067  1
  O  O3869  1  0.94056633  0.39314083  0.93493733  1
  O  O3870  1  0.94056633  0.55980750  0.10160400  1
  O  O3871  1  0.94056633  0.55980750  0.26827067  1
  O  O3872  1  0.94056633  0.55980750  0.43493733  1
  O  O3873  1  0.94056633  0.55980750  0.60160400  1
  O  O3874  1  0.94056633  0.55980750  0.76827067  1
  O  O3875  1  0.94056633  0.55980750  0.93493733  1
  O  O3876  1  0.94056633  0.72647417  0.10160400  1
  O  O3877  1  0.94056633  0.72647417  0.26827067  1
  O  O3878  1  0.94056633  0.72647417  0.43493733  1
  O  O3879  1  0.94056633  0.72647417  0.60160400  1
  O  O3880  1  0.94056633  0.72647417  0.76827067  1
  O  O3881  1  0.94056633  0.72647417  0.93493733  1
  O  O3882  1  0.94056633  0.89314083  0.10160400  1
  O  O3883  1  0.94056633  0.89314083  0.26827067  1
  O  O3884  1  0.94056633  0.89314083  0.43493733  1
  O  O3885  1  0.94056633  0.89314083  0.60160400  1
  O  O3886  1  0.94056633  0.89314083  0.76827067  1
  O  O3887  1  0.94056633  0.89314083  0.93493733  1
