# generated using pymatgen
data_Ba5Li2(WO5)3
_symmetry_space_group_name_H-M   'P 1'
_cell_length_a   23.38577245
_cell_length_b   23.38577245
_cell_length_c   97.35995200
_cell_angle_alpha   90.00000000
_cell_angle_beta   90.00000000
_cell_angle_gamma   119.99998995
_symmetry_Int_Tables_number   1
_chemical_formula_structural   Ba5Li2(WO5)3
_chemical_formula_sum   'Ba640 Li256 W384 O1920'
_cell_volume   46112.05379528
_cell_formula_units_Z   128
loop_
 _symmetry_equiv_pos_site_id
 _symmetry_equiv_pos_as_xyz
  1  'x, y, z'
loop_
 _atom_site_type_symbol
 _atom_site_label
 _atom_site_symmetry_multiplicity
 _atom_site_fract_x
 _atom_site_fract_y
 _atom_site_fract_z
 _atom_site_occupancy
  Ba  Ba0  1  0.00000000  0.00000000  0.03743350  1
  Ba  Ba1  1  0.00000000  0.00000000  0.28743350  1
  Ba  Ba2  1  0.00000000  0.00000000  0.53743350  1
  Ba  Ba3  1  0.00000000  0.00000000  0.78743350  1
  Ba  Ba4  1  1.00000000  0.25000000  0.03743350  1
  Ba  Ba5  1  1.00000000  0.25000000  0.28743350  1
  Ba  Ba6  1  1.00000000  0.25000000  0.53743350  1
  Ba  Ba7  1  1.00000000  0.25000000  0.78743350  1
  Ba  Ba8  1  1.00000000  0.50000000  0.03743350  1
  Ba  Ba9  1  1.00000000  0.50000000  0.28743350  1
  Ba  Ba10  1  1.00000000  0.50000000  0.53743350  1
  Ba  Ba11  1  1.00000000  0.50000000  0.78743350  1
  Ba  Ba12  1  0.00000000  0.75000000  0.03743350  1
  Ba  Ba13  1  0.00000000  0.75000000  0.28743350  1
  Ba  Ba14  1  0.00000000  0.75000000  0.53743350  1
  Ba  Ba15  1  0.00000000  0.75000000  0.78743350  1
  Ba  Ba16  1  0.25000000  1.00000000  0.03743350  1
  Ba  Ba17  1  0.25000000  1.00000000  0.28743350  1
  Ba  Ba18  1  0.25000000  1.00000000  0.53743350  1
  Ba  Ba19  1  0.25000000  1.00000000  0.78743350  1
  Ba  Ba20  1  0.25000000  0.25000000  0.03743350  1
  Ba  Ba21  1  0.25000000  0.25000000  0.28743350  1
  Ba  Ba22  1  0.25000000  0.25000000  0.53743350  1
  Ba  Ba23  1  0.25000000  0.25000000  0.78743350  1
  Ba  Ba24  1  0.25000000  0.50000000  0.03743350  1
  Ba  Ba25  1  0.25000000  0.50000000  0.28743350  1
  Ba  Ba26  1  0.25000000  0.50000000  0.53743350  1
  Ba  Ba27  1  0.25000000  0.50000000  0.78743350  1
  Ba  Ba28  1  0.25000000  0.75000000  0.03743350  1
  Ba  Ba29  1  0.25000000  0.75000000  0.28743350  1
  Ba  Ba30  1  0.25000000  0.75000000  0.53743350  1
  Ba  Ba31  1  0.25000000  0.75000000  0.78743350  1
  Ba  Ba32  1  0.50000000  1.00000000  0.03743350  1
  Ba  Ba33  1  0.50000000  1.00000000  0.28743350  1
  Ba  Ba34  1  0.50000000  1.00000000  0.53743350  1
  Ba  Ba35  1  0.50000000  1.00000000  0.78743350  1
  Ba  Ba36  1  0.50000000  0.25000000  0.03743350  1
  Ba  Ba37  1  0.50000000  0.25000000  0.28743350  1
  Ba  Ba38  1  0.50000000  0.25000000  0.53743350  1
  Ba  Ba39  1  0.50000000  0.25000000  0.78743350  1
  Ba  Ba40  1  0.50000000  0.50000000  0.03743350  1
  Ba  Ba41  1  0.50000000  0.50000000  0.28743350  1
  Ba  Ba42  1  0.50000000  0.50000000  0.53743350  1
  Ba  Ba43  1  0.50000000  0.50000000  0.78743350  1
  Ba  Ba44  1  0.50000000  0.75000000  0.03743350  1
  Ba  Ba45  1  0.50000000  0.75000000  0.28743350  1
  Ba  Ba46  1  0.50000000  0.75000000  0.53743350  1
  Ba  Ba47  1  0.50000000  0.75000000  0.78743350  1
  Ba  Ba48  1  0.75000000  0.00000000  0.03743350  1
  Ba  Ba49  1  0.75000000  0.00000000  0.28743350  1
  Ba  Ba50  1  0.75000000  0.00000000  0.53743350  1
  Ba  Ba51  1  0.75000000  0.00000000  0.78743350  1
  Ba  Ba52  1  0.75000000  0.25000000  0.03743350  1
  Ba  Ba53  1  0.75000000  0.25000000  0.28743350  1
  Ba  Ba54  1  0.75000000  0.25000000  0.53743350  1
  Ba  Ba55  1  0.75000000  0.25000000  0.78743350  1
  Ba  Ba56  1  0.75000000  0.50000000  0.03743350  1
  Ba  Ba57  1  0.75000000  0.50000000  0.28743350  1
  Ba  Ba58  1  0.75000000  0.50000000  0.53743350  1
  Ba  Ba59  1  0.75000000  0.50000000  0.78743350  1
  Ba  Ba60  1  0.75000000  0.75000000  0.03743350  1
  Ba  Ba61  1  0.75000000  0.75000000  0.28743350  1
  Ba  Ba62  1  0.75000000  0.75000000  0.53743350  1
  Ba  Ba63  1  0.75000000  0.75000000  0.78743350  1
  Ba  Ba64  1  0.00000000  0.00000000  0.21246925  1
  Ba  Ba65  1  0.00000000  0.00000000  0.46246925  1
  Ba  Ba66  1  0.00000000  0.00000000  0.71246925  1
  Ba  Ba67  1  0.00000000  0.00000000  0.96246925  1
  Ba  Ba68  1  1.00000000  0.25000000  0.21246925  1
  Ba  Ba69  1  1.00000000  0.25000000  0.46246925  1
  Ba  Ba70  1  1.00000000  0.25000000  0.71246925  1
  Ba  Ba71  1  1.00000000  0.25000000  0.96246925  1
  Ba  Ba72  1  1.00000000  0.50000000  0.21246925  1
  Ba  Ba73  1  1.00000000  0.50000000  0.46246925  1
  Ba  Ba74  1  1.00000000  0.50000000  0.71246925  1
  Ba  Ba75  1  1.00000000  0.50000000  0.96246925  1
  Ba  Ba76  1  0.00000000  0.75000000  0.21246925  1
  Ba  Ba77  1  0.00000000  0.75000000  0.46246925  1
  Ba  Ba78  1  0.00000000  0.75000000  0.71246925  1
  Ba  Ba79  1  0.00000000  0.75000000  0.96246925  1
  Ba  Ba80  1  0.25000000  1.00000000  0.21246925  1
  Ba  Ba81  1  0.25000000  1.00000000  0.46246925  1
  Ba  Ba82  1  0.25000000  1.00000000  0.71246925  1
  Ba  Ba83  1  0.25000000  1.00000000  0.96246925  1
  Ba  Ba84  1  0.25000000  0.25000000  0.21246925  1
  Ba  Ba85  1  0.25000000  0.25000000  0.46246925  1
  Ba  Ba86  1  0.25000000  0.25000000  0.71246925  1
  Ba  Ba87  1  0.25000000  0.25000000  0.96246925  1
  Ba  Ba88  1  0.25000000  0.50000000  0.21246925  1
  Ba  Ba89  1  0.25000000  0.50000000  0.46246925  1
  Ba  Ba90  1  0.25000000  0.50000000  0.71246925  1
  Ba  Ba91  1  0.25000000  0.50000000  0.96246925  1
  Ba  Ba92  1  0.25000000  0.75000000  0.21246925  1
  Ba  Ba93  1  0.25000000  0.75000000  0.46246925  1
  Ba  Ba94  1  0.25000000  0.75000000  0.71246925  1
  Ba  Ba95  1  0.25000000  0.75000000  0.96246925  1
  Ba  Ba96  1  0.50000000  1.00000000  0.21246925  1
  Ba  Ba97  1  0.50000000  1.00000000  0.46246925  1
  Ba  Ba98  1  0.50000000  1.00000000  0.71246925  1
  Ba  Ba99  1  0.50000000  1.00000000  0.96246925  1
  Ba  Ba100  1  0.50000000  0.25000000  0.21246925  1
  Ba  Ba101  1  0.50000000  0.25000000  0.46246925  1
  Ba  Ba102  1  0.50000000  0.25000000  0.71246925  1
  Ba  Ba103  1  0.50000000  0.25000000  0.96246925  1
  Ba  Ba104  1  0.50000000  0.50000000  0.21246925  1
  Ba  Ba105  1  0.50000000  0.50000000  0.46246925  1
  Ba  Ba106  1  0.50000000  0.50000000  0.71246925  1
  Ba  Ba107  1  0.50000000  0.50000000  0.96246925  1
  Ba  Ba108  1  0.50000000  0.75000000  0.21246925  1
  Ba  Ba109  1  0.50000000  0.75000000  0.46246925  1
  Ba  Ba110  1  0.50000000  0.75000000  0.71246925  1
  Ba  Ba111  1  0.50000000  0.75000000  0.96246925  1
  Ba  Ba112  1  0.75000000  0.00000000  0.21246925  1
  Ba  Ba113  1  0.75000000  0.00000000  0.46246925  1
  Ba  Ba114  1  0.75000000  0.00000000  0.71246925  1
  Ba  Ba115  1  0.75000000  0.00000000  0.96246925  1
  Ba  Ba116  1  0.75000000  0.25000000  0.21246925  1
  Ba  Ba117  1  0.75000000  0.25000000  0.46246925  1
  Ba  Ba118  1  0.75000000  0.25000000  0.71246925  1
  Ba  Ba119  1  0.75000000  0.25000000  0.96246925  1
  Ba  Ba120  1  0.75000000  0.50000000  0.21246925  1
  Ba  Ba121  1  0.75000000  0.50000000  0.46246925  1
  Ba  Ba122  1  0.75000000  0.50000000  0.71246925  1
  Ba  Ba123  1  0.75000000  0.50000000  0.96246925  1
  Ba  Ba124  1  0.75000000  0.75000000  0.21246925  1
  Ba  Ba125  1  0.75000000  0.75000000  0.46246925  1
  Ba  Ba126  1  0.75000000  0.75000000  0.71246925  1
  Ba  Ba127  1  0.75000000  0.75000000  0.96246925  1
  Ba  Ba128  1  0.16666675  0.08333325  0.23942775  1
  Ba  Ba129  1  0.16666675  0.08333325  0.48942775  1
  Ba  Ba130  1  0.16666675  0.08333325  0.73942775  1
  Ba  Ba131  1  0.16666675  0.08333325  0.98942775  1
  Ba  Ba132  1  0.16666675  0.33333325  0.23942775  1
  Ba  Ba133  1  0.16666675  0.33333325  0.48942775  1
  Ba  Ba134  1  0.16666675  0.33333325  0.73942775  1
  Ba  Ba135  1  0.16666675  0.33333325  0.98942775  1
  Ba  Ba136  1  0.16666675  0.58333325  0.23942775  1
  Ba  Ba137  1  0.16666675  0.58333325  0.48942775  1
  Ba  Ba138  1  0.16666675  0.58333325  0.73942775  1
  Ba  Ba139  1  0.16666675  0.58333325  0.98942775  1
  Ba  Ba140  1  0.16666675  0.83333325  0.23942775  1
  Ba  Ba141  1  0.16666675  0.83333325  0.48942775  1
  Ba  Ba142  1  0.16666675  0.83333325  0.73942775  1
  Ba  Ba143  1  0.16666675  0.83333325  0.98942775  1
  Ba  Ba144  1  0.41666675  0.08333325  0.23942775  1
  Ba  Ba145  1  0.41666675  0.08333325  0.48942775  1
  Ba  Ba146  1  0.41666675  0.08333325  0.73942775  1
  Ba  Ba147  1  0.41666675  0.08333325  0.98942775  1
  Ba  Ba148  1  0.41666675  0.33333325  0.23942775  1
  Ba  Ba149  1  0.41666675  0.33333325  0.48942775  1
  Ba  Ba150  1  0.41666675  0.33333325  0.73942775  1
  Ba  Ba151  1  0.41666675  0.33333325  0.98942775  1
  Ba  Ba152  1  0.41666675  0.58333325  0.23942775  1
  Ba  Ba153  1  0.41666675  0.58333325  0.48942775  1
  Ba  Ba154  1  0.41666675  0.58333325  0.73942775  1
  Ba  Ba155  1  0.41666675  0.58333325  0.98942775  1
  Ba  Ba156  1  0.41666675  0.83333325  0.23942775  1
  Ba  Ba157  1  0.41666675  0.83333325  0.48942775  1
  Ba  Ba158  1  0.41666675  0.83333325  0.73942775  1
  Ba  Ba159  1  0.41666675  0.83333325  0.98942775  1
  Ba  Ba160  1  0.66666675  0.08333325  0.23942775  1
  Ba  Ba161  1  0.66666675  0.08333325  0.48942775  1
  Ba  Ba162  1  0.66666675  0.08333325  0.73942775  1
  Ba  Ba163  1  0.66666675  0.08333325  0.98942775  1
  Ba  Ba164  1  0.66666675  0.33333325  0.23942775  1
  Ba  Ba165  1  0.66666675  0.33333325  0.48942775  1
  Ba  Ba166  1  0.66666675  0.33333325  0.73942775  1
  Ba  Ba167  1  0.66666675  0.33333325  0.98942775  1
  Ba  Ba168  1  0.66666675  0.58333325  0.23942775  1
  Ba  Ba169  1  0.66666675  0.58333325  0.48942775  1
  Ba  Ba170  1  0.66666675  0.58333325  0.73942775  1
  Ba  Ba171  1  0.66666675  0.58333325  0.98942775  1
  Ba  Ba172  1  0.66666675  0.83333325  0.23942775  1
  Ba  Ba173  1  0.66666675  0.83333325  0.48942775  1
  Ba  Ba174  1  0.66666675  0.83333325  0.73942775  1
  Ba  Ba175  1  0.66666675  0.83333325  0.98942775  1
  Ba  Ba176  1  0.91666675  0.08333325  0.23942775  1
  Ba  Ba177  1  0.91666675  0.08333325  0.48942775  1
  Ba  Ba178  1  0.91666675  0.08333325  0.73942775  1
  Ba  Ba179  1  0.91666675  0.08333325  0.98942775  1
  Ba  Ba180  1  0.91666675  0.33333325  0.23942775  1
  Ba  Ba181  1  0.91666675  0.33333325  0.48942775  1
  Ba  Ba182  1  0.91666675  0.33333325  0.73942775  1
  Ba  Ba183  1  0.91666675  0.33333325  0.98942775  1
  Ba  Ba184  1  0.91666675  0.58333325  0.23942775  1
  Ba  Ba185  1  0.91666675  0.58333325  0.48942775  1
  Ba  Ba186  1  0.91666675  0.58333325  0.73942775  1
  Ba  Ba187  1  0.91666675  0.58333325  0.98942775  1
  Ba  Ba188  1  0.91666675  0.83333325  0.23942775  1
  Ba  Ba189  1  0.91666675  0.83333325  0.48942775  1
  Ba  Ba190  1  0.91666675  0.83333325  0.73942775  1
  Ba  Ba191  1  0.91666675  0.83333325  0.98942775  1
  Ba  Ba192  1  0.16666675  0.08333325  0.13825650  1
  Ba  Ba193  1  0.16666675  0.08333325  0.38825650  1
  Ba  Ba194  1  0.16666675  0.08333325  0.63825650  1
  Ba  Ba195  1  0.16666675  0.08333325  0.88825650  1
  Ba  Ba196  1  0.16666675  0.33333325  0.13825650  1
  Ba  Ba197  1  0.16666675  0.33333325  0.38825650  1
  Ba  Ba198  1  0.16666675  0.33333325  0.63825650  1
  Ba  Ba199  1  0.16666675  0.33333325  0.88825650  1
  Ba  Ba200  1  0.16666675  0.58333325  0.13825650  1
  Ba  Ba201  1  0.16666675  0.58333325  0.38825650  1
  Ba  Ba202  1  0.16666675  0.58333325  0.63825650  1
  Ba  Ba203  1  0.16666675  0.58333325  0.88825650  1
  Ba  Ba204  1  0.16666675  0.83333325  0.13825650  1
  Ba  Ba205  1  0.16666675  0.83333325  0.38825650  1
  Ba  Ba206  1  0.16666675  0.83333325  0.63825650  1
  Ba  Ba207  1  0.16666675  0.83333325  0.88825650  1
  Ba  Ba208  1  0.41666675  0.08333325  0.13825650  1
  Ba  Ba209  1  0.41666675  0.08333325  0.38825650  1
  Ba  Ba210  1  0.41666675  0.08333325  0.63825650  1
  Ba  Ba211  1  0.41666675  0.08333325  0.88825650  1
  Ba  Ba212  1  0.41666675  0.33333325  0.13825650  1
  Ba  Ba213  1  0.41666675  0.33333325  0.38825650  1
  Ba  Ba214  1  0.41666675  0.33333325  0.63825650  1
  Ba  Ba215  1  0.41666675  0.33333325  0.88825650  1
  Ba  Ba216  1  0.41666675  0.58333325  0.13825650  1
  Ba  Ba217  1  0.41666675  0.58333325  0.38825650  1
  Ba  Ba218  1  0.41666675  0.58333325  0.63825650  1
  Ba  Ba219  1  0.41666675  0.58333325  0.88825650  1
  Ba  Ba220  1  0.41666675  0.83333325  0.13825650  1
  Ba  Ba221  1  0.41666675  0.83333325  0.38825650  1
  Ba  Ba222  1  0.41666675  0.83333325  0.63825650  1
  Ba  Ba223  1  0.41666675  0.83333325  0.88825650  1
  Ba  Ba224  1  0.66666675  0.08333325  0.13825650  1
  Ba  Ba225  1  0.66666675  0.08333325  0.38825650  1
  Ba  Ba226  1  0.66666675  0.08333325  0.63825650  1
  Ba  Ba227  1  0.66666675  0.08333325  0.88825650  1
  Ba  Ba228  1  0.66666675  0.33333325  0.13825650  1
  Ba  Ba229  1  0.66666675  0.33333325  0.38825650  1
  Ba  Ba230  1  0.66666675  0.33333325  0.63825650  1
  Ba  Ba231  1  0.66666675  0.33333325  0.88825650  1
  Ba  Ba232  1  0.66666675  0.58333325  0.13825650  1
  Ba  Ba233  1  0.66666675  0.58333325  0.38825650  1
  Ba  Ba234  1  0.66666675  0.58333325  0.63825650  1
  Ba  Ba235  1  0.66666675  0.58333325  0.88825650  1
  Ba  Ba236  1  0.66666675  0.83333325  0.13825650  1
  Ba  Ba237  1  0.66666675  0.83333325  0.38825650  1
  Ba  Ba238  1  0.66666675  0.83333325  0.63825650  1
  Ba  Ba239  1  0.66666675  0.83333325  0.88825650  1
  Ba  Ba240  1  0.91666675  0.08333325  0.13825650  1
  Ba  Ba241  1  0.91666675  0.08333325  0.38825650  1
  Ba  Ba242  1  0.91666675  0.08333325  0.63825650  1
  Ba  Ba243  1  0.91666675  0.08333325  0.88825650  1
  Ba  Ba244  1  0.91666675  0.33333325  0.13825650  1
  Ba  Ba245  1  0.91666675  0.33333325  0.38825650  1
  Ba  Ba246  1  0.91666675  0.33333325  0.63825650  1
  Ba  Ba247  1  0.91666675  0.33333325  0.88825650  1
  Ba  Ba248  1  0.91666675  0.58333325  0.13825650  1
  Ba  Ba249  1  0.91666675  0.58333325  0.38825650  1
  Ba  Ba250  1  0.91666675  0.58333325  0.63825650  1
  Ba  Ba251  1  0.91666675  0.58333325  0.88825650  1
  Ba  Ba252  1  0.91666675  0.83333325  0.13825650  1
  Ba  Ba253  1  0.91666675  0.83333325  0.38825650  1
  Ba  Ba254  1  0.91666675  0.83333325  0.63825650  1
  Ba  Ba255  1  0.91666675  0.83333325  0.88825650  1
  Ba  Ba256  1  0.00000000  0.00000000  0.16243350  1
  Ba  Ba257  1  0.00000000  0.00000000  0.41243350  1
  Ba  Ba258  1  0.00000000  0.00000000  0.66243350  1
  Ba  Ba259  1  0.00000000  0.00000000  0.91243350  1
  Ba  Ba260  1  1.00000000  0.25000000  0.16243350  1
  Ba  Ba261  1  1.00000000  0.25000000  0.41243350  1
  Ba  Ba262  1  1.00000000  0.25000000  0.66243350  1
  Ba  Ba263  1  1.00000000  0.25000000  0.91243350  1
  Ba  Ba264  1  1.00000000  0.50000000  0.16243350  1
  Ba  Ba265  1  1.00000000  0.50000000  0.41243350  1
  Ba  Ba266  1  1.00000000  0.50000000  0.66243350  1
  Ba  Ba267  1  1.00000000  0.50000000  0.91243350  1
  Ba  Ba268  1  0.00000000  0.75000000  0.16243350  1
  Ba  Ba269  1  0.00000000  0.75000000  0.41243350  1
  Ba  Ba270  1  0.00000000  0.75000000  0.66243350  1
  Ba  Ba271  1  0.00000000  0.75000000  0.91243350  1
  Ba  Ba272  1  0.25000000  1.00000000  0.16243350  1
  Ba  Ba273  1  0.25000000  1.00000000  0.41243350  1
  Ba  Ba274  1  0.25000000  1.00000000  0.66243350  1
  Ba  Ba275  1  0.25000000  1.00000000  0.91243350  1
  Ba  Ba276  1  0.25000000  0.25000000  0.16243350  1
  Ba  Ba277  1  0.25000000  0.25000000  0.41243350  1
  Ba  Ba278  1  0.25000000  0.25000000  0.66243350  1
  Ba  Ba279  1  0.25000000  0.25000000  0.91243350  1
  Ba  Ba280  1  0.25000000  0.50000000  0.16243350  1
  Ba  Ba281  1  0.25000000  0.50000000  0.41243350  1
  Ba  Ba282  1  0.25000000  0.50000000  0.66243350  1
  Ba  Ba283  1  0.25000000  0.50000000  0.91243350  1
  Ba  Ba284  1  0.25000000  0.75000000  0.16243350  1
  Ba  Ba285  1  0.25000000  0.75000000  0.41243350  1
  Ba  Ba286  1  0.25000000  0.75000000  0.66243350  1
  Ba  Ba287  1  0.25000000  0.75000000  0.91243350  1
  Ba  Ba288  1  0.50000000  1.00000000  0.16243350  1
  Ba  Ba289  1  0.50000000  1.00000000  0.41243350  1
  Ba  Ba290  1  0.50000000  1.00000000  0.66243350  1
  Ba  Ba291  1  0.50000000  1.00000000  0.91243350  1
  Ba  Ba292  1  0.50000000  0.25000000  0.16243350  1
  Ba  Ba293  1  0.50000000  0.25000000  0.41243350  1
  Ba  Ba294  1  0.50000000  0.25000000  0.66243350  1
  Ba  Ba295  1  0.50000000  0.25000000  0.91243350  1
  Ba  Ba296  1  0.50000000  0.50000000  0.16243350  1
  Ba  Ba297  1  0.50000000  0.50000000  0.41243350  1
  Ba  Ba298  1  0.50000000  0.50000000  0.66243350  1
  Ba  Ba299  1  0.50000000  0.50000000  0.91243350  1
  Ba  Ba300  1  0.50000000  0.75000000  0.16243350  1
  Ba  Ba301  1  0.50000000  0.75000000  0.41243350  1
  Ba  Ba302  1  0.50000000  0.75000000  0.66243350  1
  Ba  Ba303  1  0.50000000  0.75000000  0.91243350  1
  Ba  Ba304  1  0.75000000  0.00000000  0.16243350  1
  Ba  Ba305  1  0.75000000  0.00000000  0.41243350  1
  Ba  Ba306  1  0.75000000  0.00000000  0.66243350  1
  Ba  Ba307  1  0.75000000  0.00000000  0.91243350  1
  Ba  Ba308  1  0.75000000  0.25000000  0.16243350  1
  Ba  Ba309  1  0.75000000  0.25000000  0.41243350  1
  Ba  Ba310  1  0.75000000  0.25000000  0.66243350  1
  Ba  Ba311  1  0.75000000  0.25000000  0.91243350  1
  Ba  Ba312  1  0.75000000  0.50000000  0.16243350  1
  Ba  Ba313  1  0.75000000  0.50000000  0.41243350  1
  Ba  Ba314  1  0.75000000  0.50000000  0.66243350  1
  Ba  Ba315  1  0.75000000  0.50000000  0.91243350  1
  Ba  Ba316  1  0.75000000  0.75000000  0.16243350  1
  Ba  Ba317  1  0.75000000  0.75000000  0.41243350  1
  Ba  Ba318  1  0.75000000  0.75000000  0.66243350  1
  Ba  Ba319  1  0.75000000  0.75000000  0.91243350  1
  Ba  Ba320  1  0.08333325  0.16666675  0.01325650  1
  Ba  Ba321  1  0.08333325  0.16666675  0.26325650  1
  Ba  Ba322  1  0.08333325  0.16666675  0.51325650  1
  Ba  Ba323  1  0.08333325  0.16666675  0.76325650  1
  Ba  Ba324  1  0.08333325  0.41666675  0.01325650  1
  Ba  Ba325  1  0.08333325  0.41666675  0.26325650  1
  Ba  Ba326  1  0.08333325  0.41666675  0.51325650  1
  Ba  Ba327  1  0.08333325  0.41666675  0.76325650  1
  Ba  Ba328  1  0.08333325  0.66666675  0.01325650  1
  Ba  Ba329  1  0.08333325  0.66666675  0.26325650  1
  Ba  Ba330  1  0.08333325  0.66666675  0.51325650  1
  Ba  Ba331  1  0.08333325  0.66666675  0.76325650  1
  Ba  Ba332  1  0.08333325  0.91666675  0.01325650  1
  Ba  Ba333  1  0.08333325  0.91666675  0.26325650  1
  Ba  Ba334  1  0.08333325  0.91666675  0.51325650  1
  Ba  Ba335  1  0.08333325  0.91666675  0.76325650  1
  Ba  Ba336  1  0.33333325  0.16666675  0.01325650  1
  Ba  Ba337  1  0.33333325  0.16666675  0.26325650  1
  Ba  Ba338  1  0.33333325  0.16666675  0.51325650  1
  Ba  Ba339  1  0.33333325  0.16666675  0.76325650  1
  Ba  Ba340  1  0.33333325  0.41666675  0.01325650  1
  Ba  Ba341  1  0.33333325  0.41666675  0.26325650  1
  Ba  Ba342  1  0.33333325  0.41666675  0.51325650  1
  Ba  Ba343  1  0.33333325  0.41666675  0.76325650  1
  Ba  Ba344  1  0.33333325  0.66666675  0.01325650  1
  Ba  Ba345  1  0.33333325  0.66666675  0.26325650  1
  Ba  Ba346  1  0.33333325  0.66666675  0.51325650  1
  Ba  Ba347  1  0.33333325  0.66666675  0.76325650  1
  Ba  Ba348  1  0.33333325  0.91666675  0.01325650  1
  Ba  Ba349  1  0.33333325  0.91666675  0.26325650  1
  Ba  Ba350  1  0.33333325  0.91666675  0.51325650  1
  Ba  Ba351  1  0.33333325  0.91666675  0.76325650  1
  Ba  Ba352  1  0.58333325  0.16666675  0.01325650  1
  Ba  Ba353  1  0.58333325  0.16666675  0.26325650  1
  Ba  Ba354  1  0.58333325  0.16666675  0.51325650  1
  Ba  Ba355  1  0.58333325  0.16666675  0.76325650  1
  Ba  Ba356  1  0.58333325  0.41666675  0.01325650  1
  Ba  Ba357  1  0.58333325  0.41666675  0.26325650  1
  Ba  Ba358  1  0.58333325  0.41666675  0.51325650  1
  Ba  Ba359  1  0.58333325  0.41666675  0.76325650  1
  Ba  Ba360  1  0.58333325  0.66666675  0.01325650  1
  Ba  Ba361  1  0.58333325  0.66666675  0.26325650  1
  Ba  Ba362  1  0.58333325  0.66666675  0.51325650  1
  Ba  Ba363  1  0.58333325  0.66666675  0.76325650  1
  Ba  Ba364  1  0.58333325  0.91666675  0.01325650  1
  Ba  Ba365  1  0.58333325  0.91666675  0.26325650  1
  Ba  Ba366  1  0.58333325  0.91666675  0.51325650  1
  Ba  Ba367  1  0.58333325  0.91666675  0.76325650  1
  Ba  Ba368  1  0.83333325  0.16666675  0.01325650  1
  Ba  Ba369  1  0.83333325  0.16666675  0.26325650  1
  Ba  Ba370  1  0.83333325  0.16666675  0.51325650  1
  Ba  Ba371  1  0.83333325  0.16666675  0.76325650  1
  Ba  Ba372  1  0.83333325  0.41666675  0.01325650  1
  Ba  Ba373  1  0.83333325  0.41666675  0.26325650  1
  Ba  Ba374  1  0.83333325  0.41666675  0.51325650  1
  Ba  Ba375  1  0.83333325  0.41666675  0.76325650  1
  Ba  Ba376  1  0.83333325  0.66666675  0.01325650  1
  Ba  Ba377  1  0.83333325  0.66666675  0.26325650  1
  Ba  Ba378  1  0.83333325  0.66666675  0.51325650  1
  Ba  Ba379  1  0.83333325  0.66666675  0.76325650  1
  Ba  Ba380  1  0.83333325  0.91666675  0.01325650  1
  Ba  Ba381  1  0.83333325  0.91666675  0.26325650  1
  Ba  Ba382  1  0.83333325  0.91666675  0.51325650  1
  Ba  Ba383  1  0.83333325  0.91666675  0.76325650  1
  Ba  Ba384  1  0.00000000  0.00000000  0.08746925  1
  Ba  Ba385  1  0.00000000  0.00000000  0.33746925  1
  Ba  Ba386  1  0.00000000  0.00000000  0.58746925  1
  Ba  Ba387  1  0.00000000  0.00000000  0.83746925  1
  Ba  Ba388  1  1.00000000  0.25000000  0.08746925  1
  Ba  Ba389  1  1.00000000  0.25000000  0.33746925  1
  Ba  Ba390  1  1.00000000  0.25000000  0.58746925  1
  Ba  Ba391  1  1.00000000  0.25000000  0.83746925  1
  Ba  Ba392  1  1.00000000  0.50000000  0.08746925  1
  Ba  Ba393  1  1.00000000  0.50000000  0.33746925  1
  Ba  Ba394  1  1.00000000  0.50000000  0.58746925  1
  Ba  Ba395  1  1.00000000  0.50000000  0.83746925  1
  Ba  Ba396  1  0.00000000  0.75000000  0.08746925  1
  Ba  Ba397  1  0.00000000  0.75000000  0.33746925  1
  Ba  Ba398  1  0.00000000  0.75000000  0.58746925  1
  Ba  Ba399  1  0.00000000  0.75000000  0.83746925  1
  Ba  Ba400  1  0.25000000  1.00000000  0.08746925  1
  Ba  Ba401  1  0.25000000  1.00000000  0.33746925  1
  Ba  Ba402  1  0.25000000  1.00000000  0.58746925  1
  Ba  Ba403  1  0.25000000  1.00000000  0.83746925  1
  Ba  Ba404  1  0.25000000  0.25000000  0.08746925  1
  Ba  Ba405  1  0.25000000  0.25000000  0.33746925  1
  Ba  Ba406  1  0.25000000  0.25000000  0.58746925  1
  Ba  Ba407  1  0.25000000  0.25000000  0.83746925  1
  Ba  Ba408  1  0.25000000  0.50000000  0.08746925  1
  Ba  Ba409  1  0.25000000  0.50000000  0.33746925  1
  Ba  Ba410  1  0.25000000  0.50000000  0.58746925  1
  Ba  Ba411  1  0.25000000  0.50000000  0.83746925  1
  Ba  Ba412  1  0.25000000  0.75000000  0.08746925  1
  Ba  Ba413  1  0.25000000  0.75000000  0.33746925  1
  Ba  Ba414  1  0.25000000  0.75000000  0.58746925  1
  Ba  Ba415  1  0.25000000  0.75000000  0.83746925  1
  Ba  Ba416  1  0.50000000  1.00000000  0.08746925  1
  Ba  Ba417  1  0.50000000  1.00000000  0.33746925  1
  Ba  Ba418  1  0.50000000  1.00000000  0.58746925  1
  Ba  Ba419  1  0.50000000  1.00000000  0.83746925  1
  Ba  Ba420  1  0.50000000  0.25000000  0.08746925  1
  Ba  Ba421  1  0.50000000  0.25000000  0.33746925  1
  Ba  Ba422  1  0.50000000  0.25000000  0.58746925  1
  Ba  Ba423  1  0.50000000  0.25000000  0.83746925  1
  Ba  Ba424  1  0.50000000  0.50000000  0.08746925  1
  Ba  Ba425  1  0.50000000  0.50000000  0.33746925  1
  Ba  Ba426  1  0.50000000  0.50000000  0.58746925  1
  Ba  Ba427  1  0.50000000  0.50000000  0.83746925  1
  Ba  Ba428  1  0.50000000  0.75000000  0.08746925  1
  Ba  Ba429  1  0.50000000  0.75000000  0.33746925  1
  Ba  Ba430  1  0.50000000  0.75000000  0.58746925  1
  Ba  Ba431  1  0.50000000  0.75000000  0.83746925  1
  Ba  Ba432  1  0.75000000  0.00000000  0.08746925  1
  Ba  Ba433  1  0.75000000  0.00000000  0.33746925  1
  Ba  Ba434  1  0.75000000  0.00000000  0.58746925  1
  Ba  Ba435  1  0.75000000  0.00000000  0.83746925  1
  Ba  Ba436  1  0.75000000  0.25000000  0.08746925  1
  Ba  Ba437  1  0.75000000  0.25000000  0.33746925  1
  Ba  Ba438  1  0.75000000  0.25000000  0.58746925  1
  Ba  Ba439  1  0.75000000  0.25000000  0.83746925  1
  Ba  Ba440  1  0.75000000  0.50000000  0.08746925  1
  Ba  Ba441  1  0.75000000  0.50000000  0.33746925  1
  Ba  Ba442  1  0.75000000  0.50000000  0.58746925  1
  Ba  Ba443  1  0.75000000  0.50000000  0.83746925  1
  Ba  Ba444  1  0.75000000  0.75000000  0.08746925  1
  Ba  Ba445  1  0.75000000  0.75000000  0.33746925  1
  Ba  Ba446  1  0.75000000  0.75000000  0.58746925  1
  Ba  Ba447  1  0.75000000  0.75000000  0.83746925  1
  Ba  Ba448  1  0.16666675  0.08333325  0.06059550  1
  Ba  Ba449  1  0.16666675  0.08333325  0.31059550  1
  Ba  Ba450  1  0.16666675  0.08333325  0.56059550  1
  Ba  Ba451  1  0.16666675  0.08333325  0.81059550  1
  Ba  Ba452  1  0.16666675  0.33333325  0.06059550  1
  Ba  Ba453  1  0.16666675  0.33333325  0.31059550  1
  Ba  Ba454  1  0.16666675  0.33333325  0.56059550  1
  Ba  Ba455  1  0.16666675  0.33333325  0.81059550  1
  Ba  Ba456  1  0.16666675  0.58333325  0.06059550  1
  Ba  Ba457  1  0.16666675  0.58333325  0.31059550  1
  Ba  Ba458  1  0.16666675  0.58333325  0.56059550  1
  Ba  Ba459  1  0.16666675  0.58333325  0.81059550  1
  Ba  Ba460  1  0.16666675  0.83333325  0.06059550  1
  Ba  Ba461  1  0.16666675  0.83333325  0.31059550  1
  Ba  Ba462  1  0.16666675  0.83333325  0.56059550  1
  Ba  Ba463  1  0.16666675  0.83333325  0.81059550  1
  Ba  Ba464  1  0.41666675  0.08333325  0.06059550  1
  Ba  Ba465  1  0.41666675  0.08333325  0.31059550  1
  Ba  Ba466  1  0.41666675  0.08333325  0.56059550  1
  Ba  Ba467  1  0.41666675  0.08333325  0.81059550  1
  Ba  Ba468  1  0.41666675  0.33333325  0.06059550  1
  Ba  Ba469  1  0.41666675  0.33333325  0.31059550  1
  Ba  Ba470  1  0.41666675  0.33333325  0.56059550  1
  Ba  Ba471  1  0.41666675  0.33333325  0.81059550  1
  Ba  Ba472  1  0.41666675  0.58333325  0.06059550  1
  Ba  Ba473  1  0.41666675  0.58333325  0.31059550  1
  Ba  Ba474  1  0.41666675  0.58333325  0.56059550  1
  Ba  Ba475  1  0.41666675  0.58333325  0.81059550  1
  Ba  Ba476  1  0.41666675  0.83333325  0.06059550  1
  Ba  Ba477  1  0.41666675  0.83333325  0.31059550  1
  Ba  Ba478  1  0.41666675  0.83333325  0.56059550  1
  Ba  Ba479  1  0.41666675  0.83333325  0.81059550  1
  Ba  Ba480  1  0.66666675  0.08333325  0.06059550  1
  Ba  Ba481  1  0.66666675  0.08333325  0.31059550  1
  Ba  Ba482  1  0.66666675  0.08333325  0.56059550  1
  Ba  Ba483  1  0.66666675  0.08333325  0.81059550  1
  Ba  Ba484  1  0.66666675  0.33333325  0.06059550  1
  Ba  Ba485  1  0.66666675  0.33333325  0.31059550  1
  Ba  Ba486  1  0.66666675  0.33333325  0.56059550  1
  Ba  Ba487  1  0.66666675  0.33333325  0.81059550  1
  Ba  Ba488  1  0.66666675  0.58333325  0.06059550  1
  Ba  Ba489  1  0.66666675  0.58333325  0.31059550  1
  Ba  Ba490  1  0.66666675  0.58333325  0.56059550  1
  Ba  Ba491  1  0.66666675  0.58333325  0.81059550  1
  Ba  Ba492  1  0.66666675  0.83333325  0.06059550  1
  Ba  Ba493  1  0.66666675  0.83333325  0.31059550  1
  Ba  Ba494  1  0.66666675  0.83333325  0.56059550  1
  Ba  Ba495  1  0.66666675  0.83333325  0.81059550  1
  Ba  Ba496  1  0.91666675  0.08333325  0.06059550  1
  Ba  Ba497  1  0.91666675  0.08333325  0.31059550  1
  Ba  Ba498  1  0.91666675  0.08333325  0.56059550  1
  Ba  Ba499  1  0.91666675  0.08333325  0.81059550  1
  Ba  Ba500  1  0.91666675  0.33333325  0.06059550  1
  Ba  Ba501  1  0.91666675  0.33333325  0.31059550  1
  Ba  Ba502  1  0.91666675  0.33333325  0.56059550  1
  Ba  Ba503  1  0.91666675  0.33333325  0.81059550  1
  Ba  Ba504  1  0.91666675  0.58333325  0.06059550  1
  Ba  Ba505  1  0.91666675  0.58333325  0.31059550  1
  Ba  Ba506  1  0.91666675  0.58333325  0.56059550  1
  Ba  Ba507  1  0.91666675  0.58333325  0.81059550  1
  Ba  Ba508  1  0.91666675  0.83333325  0.06059550  1
  Ba  Ba509  1  0.91666675  0.83333325  0.31059550  1
  Ba  Ba510  1  0.91666675  0.83333325  0.56059550  1
  Ba  Ba511  1  0.91666675  0.83333325  0.81059550  1
  Ba  Ba512  1  0.08333325  0.16666675  0.11442775  1
  Ba  Ba513  1  0.08333325  0.16666675  0.36442775  1
  Ba  Ba514  1  0.08333325  0.16666675  0.61442775  1
  Ba  Ba515  1  0.08333325  0.16666675  0.86442775  1
  Ba  Ba516  1  0.08333325  0.41666675  0.11442775  1
  Ba  Ba517  1  0.08333325  0.41666675  0.36442775  1
  Ba  Ba518  1  0.08333325  0.41666675  0.61442775  1
  Ba  Ba519  1  0.08333325  0.41666675  0.86442775  1
  Ba  Ba520  1  0.08333325  0.66666675  0.11442775  1
  Ba  Ba521  1  0.08333325  0.66666675  0.36442775  1
  Ba  Ba522  1  0.08333325  0.66666675  0.61442775  1
  Ba  Ba523  1  0.08333325  0.66666675  0.86442775  1
  Ba  Ba524  1  0.08333325  0.91666675  0.11442775  1
  Ba  Ba525  1  0.08333325  0.91666675  0.36442775  1
  Ba  Ba526  1  0.08333325  0.91666675  0.61442775  1
  Ba  Ba527  1  0.08333325  0.91666675  0.86442775  1
  Ba  Ba528  1  0.33333325  0.16666675  0.11442775  1
  Ba  Ba529  1  0.33333325  0.16666675  0.36442775  1
  Ba  Ba530  1  0.33333325  0.16666675  0.61442775  1
  Ba  Ba531  1  0.33333325  0.16666675  0.86442775  1
  Ba  Ba532  1  0.33333325  0.41666675  0.11442775  1
  Ba  Ba533  1  0.33333325  0.41666675  0.36442775  1
  Ba  Ba534  1  0.33333325  0.41666675  0.61442775  1
  Ba  Ba535  1  0.33333325  0.41666675  0.86442775  1
  Ba  Ba536  1  0.33333325  0.66666675  0.11442775  1
  Ba  Ba537  1  0.33333325  0.66666675  0.36442775  1
  Ba  Ba538  1  0.33333325  0.66666675  0.61442775  1
  Ba  Ba539  1  0.33333325  0.66666675  0.86442775  1
  Ba  Ba540  1  0.33333325  0.91666675  0.11442775  1
  Ba  Ba541  1  0.33333325  0.91666675  0.36442775  1
  Ba  Ba542  1  0.33333325  0.91666675  0.61442775  1
  Ba  Ba543  1  0.33333325  0.91666675  0.86442775  1
  Ba  Ba544  1  0.58333325  0.16666675  0.11442775  1
  Ba  Ba545  1  0.58333325  0.16666675  0.36442775  1
  Ba  Ba546  1  0.58333325  0.16666675  0.61442775  1
  Ba  Ba547  1  0.58333325  0.16666675  0.86442775  1
  Ba  Ba548  1  0.58333325  0.41666675  0.11442775  1
  Ba  Ba549  1  0.58333325  0.41666675  0.36442775  1
  Ba  Ba550  1  0.58333325  0.41666675  0.61442775  1
  Ba  Ba551  1  0.58333325  0.41666675  0.86442775  1
  Ba  Ba552  1  0.58333325  0.66666675  0.11442775  1
  Ba  Ba553  1  0.58333325  0.66666675  0.36442775  1
  Ba  Ba554  1  0.58333325  0.66666675  0.61442775  1
  Ba  Ba555  1  0.58333325  0.66666675  0.86442775  1
  Ba  Ba556  1  0.58333325  0.91666675  0.11442775  1
  Ba  Ba557  1  0.58333325  0.91666675  0.36442775  1
  Ba  Ba558  1  0.58333325  0.91666675  0.61442775  1
  Ba  Ba559  1  0.58333325  0.91666675  0.86442775  1
  Ba  Ba560  1  0.83333325  0.16666675  0.11442775  1
  Ba  Ba561  1  0.83333325  0.16666675  0.36442775  1
  Ba  Ba562  1  0.83333325  0.16666675  0.61442775  1
  Ba  Ba563  1  0.83333325  0.16666675  0.86442775  1
  Ba  Ba564  1  0.83333325  0.41666675  0.11442775  1
  Ba  Ba565  1  0.83333325  0.41666675  0.36442775  1
  Ba  Ba566  1  0.83333325  0.41666675  0.61442775  1
  Ba  Ba567  1  0.83333325  0.41666675  0.86442775  1
  Ba  Ba568  1  0.83333325  0.66666675  0.11442775  1
  Ba  Ba569  1  0.83333325  0.66666675  0.36442775  1
  Ba  Ba570  1  0.83333325  0.66666675  0.61442775  1
  Ba  Ba571  1  0.83333325  0.66666675  0.86442775  1
  Ba  Ba572  1  0.83333325  0.91666675  0.11442775  1
  Ba  Ba573  1  0.83333325  0.91666675  0.36442775  1
  Ba  Ba574  1  0.83333325  0.91666675  0.61442775  1
  Ba  Ba575  1  0.83333325  0.91666675  0.86442775  1
  Ba  Ba576  1  0.08333325  0.16666675  0.18559550  1
  Ba  Ba577  1  0.08333325  0.16666675  0.43559550  1
  Ba  Ba578  1  0.08333325  0.16666675  0.68559550  1
  Ba  Ba579  1  0.08333325  0.16666675  0.93559550  1
  Ba  Ba580  1  0.08333325  0.41666675  0.18559550  1
  Ba  Ba581  1  0.08333325  0.41666675  0.43559550  1
  Ba  Ba582  1  0.08333325  0.41666675  0.68559550  1
  Ba  Ba583  1  0.08333325  0.41666675  0.93559550  1
  Ba  Ba584  1  0.08333325  0.66666675  0.18559550  1
  Ba  Ba585  1  0.08333325  0.66666675  0.43559550  1
  Ba  Ba586  1  0.08333325  0.66666675  0.68559550  1
  Ba  Ba587  1  0.08333325  0.66666675  0.93559550  1
  Ba  Ba588  1  0.08333325  0.91666675  0.18559550  1
  Ba  Ba589  1  0.08333325  0.91666675  0.43559550  1
  Ba  Ba590  1  0.08333325  0.91666675  0.68559550  1
  Ba  Ba591  1  0.08333325  0.91666675  0.93559550  1
  Ba  Ba592  1  0.33333325  0.16666675  0.18559550  1
  Ba  Ba593  1  0.33333325  0.16666675  0.43559550  1
  Ba  Ba594  1  0.33333325  0.16666675  0.68559550  1
  Ba  Ba595  1  0.33333325  0.16666675  0.93559550  1
  Ba  Ba596  1  0.33333325  0.41666675  0.18559550  1
  Ba  Ba597  1  0.33333325  0.41666675  0.43559550  1
  Ba  Ba598  1  0.33333325  0.41666675  0.68559550  1
  Ba  Ba599  1  0.33333325  0.41666675  0.93559550  1
  Ba  Ba600  1  0.33333325  0.66666675  0.18559550  1
  Ba  Ba601  1  0.33333325  0.66666675  0.43559550  1
  Ba  Ba602  1  0.33333325  0.66666675  0.68559550  1
  Ba  Ba603  1  0.33333325  0.66666675  0.93559550  1
  Ba  Ba604  1  0.33333325  0.91666675  0.18559550  1
  Ba  Ba605  1  0.33333325  0.91666675  0.43559550  1
  Ba  Ba606  1  0.33333325  0.91666675  0.68559550  1
  Ba  Ba607  1  0.33333325  0.91666675  0.93559550  1
  Ba  Ba608  1  0.58333325  0.16666675  0.18559550  1
  Ba  Ba609  1  0.58333325  0.16666675  0.43559550  1
  Ba  Ba610  1  0.58333325  0.16666675  0.68559550  1
  Ba  Ba611  1  0.58333325  0.16666675  0.93559550  1
  Ba  Ba612  1  0.58333325  0.41666675  0.18559550  1
  Ba  Ba613  1  0.58333325  0.41666675  0.43559550  1
  Ba  Ba614  1  0.58333325  0.41666675  0.68559550  1
  Ba  Ba615  1  0.58333325  0.41666675  0.93559550  1
  Ba  Ba616  1  0.58333325  0.66666675  0.18559550  1
  Ba  Ba617  1  0.58333325  0.66666675  0.43559550  1
  Ba  Ba618  1  0.58333325  0.66666675  0.68559550  1
  Ba  Ba619  1  0.58333325  0.66666675  0.93559550  1
  Ba  Ba620  1  0.58333325  0.91666675  0.18559550  1
  Ba  Ba621  1  0.58333325  0.91666675  0.43559550  1
  Ba  Ba622  1  0.58333325  0.91666675  0.68559550  1
  Ba  Ba623  1  0.58333325  0.91666675  0.93559550  1
  Ba  Ba624  1  0.83333325  0.16666675  0.18559550  1
  Ba  Ba625  1  0.83333325  0.16666675  0.43559550  1
  Ba  Ba626  1  0.83333325  0.16666675  0.68559550  1
  Ba  Ba627  1  0.83333325  0.16666675  0.93559550  1
  Ba  Ba628  1  0.83333325  0.41666675  0.18559550  1
  Ba  Ba629  1  0.83333325  0.41666675  0.43559550  1
  Ba  Ba630  1  0.83333325  0.41666675  0.68559550  1
  Ba  Ba631  1  0.83333325  0.41666675  0.93559550  1
  Ba  Ba632  1  0.83333325  0.66666675  0.18559550  1
  Ba  Ba633  1  0.83333325  0.66666675  0.43559550  1
  Ba  Ba634  1  0.83333325  0.66666675  0.68559550  1
  Ba  Ba635  1  0.83333325  0.66666675  0.93559550  1
  Ba  Ba636  1  0.83333325  0.91666675  0.18559550  1
  Ba  Ba637  1  0.83333325  0.91666675  0.43559550  1
  Ba  Ba638  1  0.83333325  0.91666675  0.68559550  1
  Ba  Ba639  1  0.83333325  0.91666675  0.93559550  1
  Li  Li640  1  0.16666675  0.08333325  0.17030200  1
  Li  Li641  1  0.16666675  0.08333325  0.42030200  1
  Li  Li642  1  0.16666675  0.08333325  0.67030200  1
  Li  Li643  1  0.16666675  0.08333325  0.92030200  1
  Li  Li644  1  0.16666675  0.33333325  0.17030200  1
  Li  Li645  1  0.16666675  0.33333325  0.42030200  1
  Li  Li646  1  0.16666675  0.33333325  0.67030200  1
  Li  Li647  1  0.16666675  0.33333325  0.92030200  1
  Li  Li648  1  0.16666675  0.58333325  0.17030200  1
  Li  Li649  1  0.16666675  0.58333325  0.42030200  1
  Li  Li650  1  0.16666675  0.58333325  0.67030200  1
  Li  Li651  1  0.16666675  0.58333325  0.92030200  1
  Li  Li652  1  0.16666675  0.83333325  0.17030200  1
  Li  Li653  1  0.16666675  0.83333325  0.42030200  1
  Li  Li654  1  0.16666675  0.83333325  0.67030200  1
  Li  Li655  1  0.16666675  0.83333325  0.92030200  1
  Li  Li656  1  0.41666675  0.08333325  0.17030200  1
  Li  Li657  1  0.41666675  0.08333325  0.42030200  1
  Li  Li658  1  0.41666675  0.08333325  0.67030200  1
  Li  Li659  1  0.41666675  0.08333325  0.92030200  1
  Li  Li660  1  0.41666675  0.33333325  0.17030200  1
  Li  Li661  1  0.41666675  0.33333325  0.42030200  1
  Li  Li662  1  0.41666675  0.33333325  0.67030200  1
  Li  Li663  1  0.41666675  0.33333325  0.92030200  1
  Li  Li664  1  0.41666675  0.58333325  0.17030200  1
  Li  Li665  1  0.41666675  0.58333325  0.42030200  1
  Li  Li666  1  0.41666675  0.58333325  0.67030200  1
  Li  Li667  1  0.41666675  0.58333325  0.92030200  1
  Li  Li668  1  0.41666675  0.83333325  0.17030200  1
  Li  Li669  1  0.41666675  0.83333325  0.42030200  1
  Li  Li670  1  0.41666675  0.83333325  0.67030200  1
  Li  Li671  1  0.41666675  0.83333325  0.92030200  1
  Li  Li672  1  0.66666675  0.08333325  0.17030200  1
  Li  Li673  1  0.66666675  0.08333325  0.42030200  1
  Li  Li674  1  0.66666675  0.08333325  0.67030200  1
  Li  Li675  1  0.66666675  0.08333325  0.92030200  1
  Li  Li676  1  0.66666675  0.33333325  0.17030200  1
  Li  Li677  1  0.66666675  0.33333325  0.42030200  1
  Li  Li678  1  0.66666675  0.33333325  0.67030200  1
  Li  Li679  1  0.66666675  0.33333325  0.92030200  1
  Li  Li680  1  0.66666675  0.58333325  0.17030200  1
  Li  Li681  1  0.66666675  0.58333325  0.42030200  1
  Li  Li682  1  0.66666675  0.58333325  0.67030200  1
  Li  Li683  1  0.66666675  0.58333325  0.92030200  1
  Li  Li684  1  0.66666675  0.83333325  0.17030200  1
  Li  Li685  1  0.66666675  0.83333325  0.42030200  1
  Li  Li686  1  0.66666675  0.83333325  0.67030200  1
  Li  Li687  1  0.66666675  0.83333325  0.92030200  1
  Li  Li688  1  0.91666675  0.08333325  0.17030200  1
  Li  Li689  1  0.91666675  0.08333325  0.42030200  1
  Li  Li690  1  0.91666675  0.08333325  0.67030200  1
  Li  Li691  1  0.91666675  0.08333325  0.92030200  1
  Li  Li692  1  0.91666675  0.33333325  0.17030200  1
  Li  Li693  1  0.91666675  0.33333325  0.42030200  1
  Li  Li694  1  0.91666675  0.33333325  0.67030200  1
  Li  Li695  1  0.91666675  0.33333325  0.92030200  1
  Li  Li696  1  0.91666675  0.58333325  0.17030200  1
  Li  Li697  1  0.91666675  0.58333325  0.42030200  1
  Li  Li698  1  0.91666675  0.58333325  0.67030200  1
  Li  Li699  1  0.91666675  0.58333325  0.92030200  1
  Li  Li700  1  0.91666675  0.83333325  0.17030200  1
  Li  Li701  1  0.91666675  0.83333325  0.42030200  1
  Li  Li702  1  0.91666675  0.83333325  0.67030200  1
  Li  Li703  1  0.91666675  0.83333325  0.92030200  1
  Li  Li704  1  0.08333325  0.16666675  0.04530200  1
  Li  Li705  1  0.08333325  0.16666675  0.29530200  1
  Li  Li706  1  0.08333325  0.16666675  0.54530200  1
  Li  Li707  1  0.08333325  0.16666675  0.79530200  1
  Li  Li708  1  0.08333325  0.41666675  0.04530200  1
  Li  Li709  1  0.08333325  0.41666675  0.29530200  1
  Li  Li710  1  0.08333325  0.41666675  0.54530200  1
  Li  Li711  1  0.08333325  0.41666675  0.79530200  1
  Li  Li712  1  0.08333325  0.66666675  0.04530200  1
  Li  Li713  1  0.08333325  0.66666675  0.29530200  1
  Li  Li714  1  0.08333325  0.66666675  0.54530200  1
  Li  Li715  1  0.08333325  0.66666675  0.79530200  1
  Li  Li716  1  0.08333325  0.91666675  0.04530200  1
  Li  Li717  1  0.08333325  0.91666675  0.29530200  1
  Li  Li718  1  0.08333325  0.91666675  0.54530200  1
  Li  Li719  1  0.08333325  0.91666675  0.79530200  1
  Li  Li720  1  0.33333325  0.16666675  0.04530200  1
  Li  Li721  1  0.33333325  0.16666675  0.29530200  1
  Li  Li722  1  0.33333325  0.16666675  0.54530200  1
  Li  Li723  1  0.33333325  0.16666675  0.79530200  1
  Li  Li724  1  0.33333325  0.41666675  0.04530200  1
  Li  Li725  1  0.33333325  0.41666675  0.29530200  1
  Li  Li726  1  0.33333325  0.41666675  0.54530200  1
  Li  Li727  1  0.33333325  0.41666675  0.79530200  1
  Li  Li728  1  0.33333325  0.66666675  0.04530200  1
  Li  Li729  1  0.33333325  0.66666675  0.29530200  1
  Li  Li730  1  0.33333325  0.66666675  0.54530200  1
  Li  Li731  1  0.33333325  0.66666675  0.79530200  1
  Li  Li732  1  0.33333325  0.91666675  0.04530200  1
  Li  Li733  1  0.33333325  0.91666675  0.29530200  1
  Li  Li734  1  0.33333325  0.91666675  0.54530200  1
  Li  Li735  1  0.33333325  0.91666675  0.79530200  1
  Li  Li736  1  0.58333325  0.16666675  0.04530200  1
  Li  Li737  1  0.58333325  0.16666675  0.29530200  1
  Li  Li738  1  0.58333325  0.16666675  0.54530200  1
  Li  Li739  1  0.58333325  0.16666675  0.79530200  1
  Li  Li740  1  0.58333325  0.41666675  0.04530200  1
  Li  Li741  1  0.58333325  0.41666675  0.29530200  1
  Li  Li742  1  0.58333325  0.41666675  0.54530200  1
  Li  Li743  1  0.58333325  0.41666675  0.79530200  1
  Li  Li744  1  0.58333325  0.66666675  0.04530200  1
  Li  Li745  1  0.58333325  0.66666675  0.29530200  1
  Li  Li746  1  0.58333325  0.66666675  0.54530200  1
  Li  Li747  1  0.58333325  0.66666675  0.79530200  1
  Li  Li748  1  0.58333325  0.91666675  0.04530200  1
  Li  Li749  1  0.58333325  0.91666675  0.29530200  1
  Li  Li750  1  0.58333325  0.91666675  0.54530200  1
  Li  Li751  1  0.58333325  0.91666675  0.79530200  1
  Li  Li752  1  0.83333325  0.16666675  0.04530200  1
  Li  Li753  1  0.83333325  0.16666675  0.29530200  1
  Li  Li754  1  0.83333325  0.16666675  0.54530200  1
  Li  Li755  1  0.83333325  0.16666675  0.79530200  1
  Li  Li756  1  0.83333325  0.41666675  0.04530200  1
  Li  Li757  1  0.83333325  0.41666675  0.29530200  1
  Li  Li758  1  0.83333325  0.41666675  0.54530200  1
  Li  Li759  1  0.83333325  0.41666675  0.79530200  1
  Li  Li760  1  0.83333325  0.66666675  0.04530200  1
  Li  Li761  1  0.83333325  0.66666675  0.29530200  1
  Li  Li762  1  0.83333325  0.66666675  0.54530200  1
  Li  Li763  1  0.83333325  0.66666675  0.79530200  1
  Li  Li764  1  0.83333325  0.91666675  0.04530200  1
  Li  Li765  1  0.83333325  0.91666675  0.29530200  1
  Li  Li766  1  0.83333325  0.91666675  0.54530200  1
  Li  Li767  1  0.83333325  0.91666675  0.79530200  1
  Li  Li768  1  0.00000000  0.00000000  0.00230275  1
  Li  Li769  1  0.00000000  0.00000000  0.25230275  1
  Li  Li770  1  0.00000000  0.00000000  0.50230275  1
  Li  Li771  1  0.00000000  0.00000000  0.75230275  1
  Li  Li772  1  1.00000000  0.25000000  0.00230275  1
  Li  Li773  1  1.00000000  0.25000000  0.25230275  1
  Li  Li774  1  1.00000000  0.25000000  0.50230275  1
  Li  Li775  1  1.00000000  0.25000000  0.75230275  1
  Li  Li776  1  1.00000000  0.50000000  0.00230275  1
  Li  Li777  1  1.00000000  0.50000000  0.25230275  1
  Li  Li778  1  1.00000000  0.50000000  0.50230275  1
  Li  Li779  1  1.00000000  0.50000000  0.75230275  1
  Li  Li780  1  0.00000000  0.75000000  0.00230275  1
  Li  Li781  1  0.00000000  0.75000000  0.25230275  1
  Li  Li782  1  0.00000000  0.75000000  0.50230275  1
  Li  Li783  1  0.00000000  0.75000000  0.75230275  1
  Li  Li784  1  0.25000000  1.00000000  0.00230275  1
  Li  Li785  1  0.25000000  1.00000000  0.25230275  1
  Li  Li786  1  0.25000000  1.00000000  0.50230275  1
  Li  Li787  1  0.25000000  1.00000000  0.75230275  1
  Li  Li788  1  0.25000000  0.25000000  0.00230275  1
  Li  Li789  1  0.25000000  0.25000000  0.25230275  1
  Li  Li790  1  0.25000000  0.25000000  0.50230275  1
  Li  Li791  1  0.25000000  0.25000000  0.75230275  1
  Li  Li792  1  0.25000000  0.50000000  0.00230275  1
  Li  Li793  1  0.25000000  0.50000000  0.25230275  1
  Li  Li794  1  0.25000000  0.50000000  0.50230275  1
  Li  Li795  1  0.25000000  0.50000000  0.75230275  1
  Li  Li796  1  0.25000000  0.75000000  0.00230275  1
  Li  Li797  1  0.25000000  0.75000000  0.25230275  1
  Li  Li798  1  0.25000000  0.75000000  0.50230275  1
  Li  Li799  1  0.25000000  0.75000000  0.75230275  1
  Li  Li800  1  0.50000000  1.00000000  0.00230275  1
  Li  Li801  1  0.50000000  1.00000000  0.25230275  1
  Li  Li802  1  0.50000000  1.00000000  0.50230275  1
  Li  Li803  1  0.50000000  1.00000000  0.75230275  1
  Li  Li804  1  0.50000000  0.25000000  0.00230275  1
  Li  Li805  1  0.50000000  0.25000000  0.25230275  1
  Li  Li806  1  0.50000000  0.25000000  0.50230275  1
  Li  Li807  1  0.50000000  0.25000000  0.75230275  1
  Li  Li808  1  0.50000000  0.50000000  0.00230275  1
  Li  Li809  1  0.50000000  0.50000000  0.25230275  1
  Li  Li810  1  0.50000000  0.50000000  0.50230275  1
  Li  Li811  1  0.50000000  0.50000000  0.75230275  1
  Li  Li812  1  0.50000000  0.75000000  0.00230275  1
  Li  Li813  1  0.50000000  0.75000000  0.25230275  1
  Li  Li814  1  0.50000000  0.75000000  0.50230275  1
  Li  Li815  1  0.50000000  0.75000000  0.75230275  1
  Li  Li816  1  0.75000000  0.00000000  0.00230275  1
  Li  Li817  1  0.75000000  0.00000000  0.25230275  1
  Li  Li818  1  0.75000000  0.00000000  0.50230275  1
  Li  Li819  1  0.75000000  0.00000000  0.75230275  1
  Li  Li820  1  0.75000000  0.25000000  0.00230275  1
  Li  Li821  1  0.75000000  0.25000000  0.25230275  1
  Li  Li822  1  0.75000000  0.25000000  0.50230275  1
  Li  Li823  1  0.75000000  0.25000000  0.75230275  1
  Li  Li824  1  0.75000000  0.50000000  0.00230275  1
  Li  Li825  1  0.75000000  0.50000000  0.25230275  1
  Li  Li826  1  0.75000000  0.50000000  0.50230275  1
  Li  Li827  1  0.75000000  0.50000000  0.75230275  1
  Li  Li828  1  0.75000000  0.75000000  0.00230275  1
  Li  Li829  1  0.75000000  0.75000000  0.25230275  1
  Li  Li830  1  0.75000000  0.75000000  0.50230275  1
  Li  Li831  1  0.75000000  0.75000000  0.75230275  1
  Li  Li832  1  0.00000000  0.00000000  0.12730275  1
  Li  Li833  1  0.00000000  0.00000000  0.37730275  1
  Li  Li834  1  0.00000000  0.00000000  0.62730275  1
  Li  Li835  1  0.00000000  0.00000000  0.87730275  1
  Li  Li836  1  1.00000000  0.25000000  0.12730275  1
  Li  Li837  1  1.00000000  0.25000000  0.37730275  1
  Li  Li838  1  1.00000000  0.25000000  0.62730275  1
  Li  Li839  1  1.00000000  0.25000000  0.87730275  1
  Li  Li840  1  1.00000000  0.50000000  0.12730275  1
  Li  Li841  1  1.00000000  0.50000000  0.37730275  1
  Li  Li842  1  1.00000000  0.50000000  0.62730275  1
  Li  Li843  1  1.00000000  0.50000000  0.87730275  1
  Li  Li844  1  0.00000000  0.75000000  0.12730275  1
  Li  Li845  1  0.00000000  0.75000000  0.37730275  1
  Li  Li846  1  0.00000000  0.75000000  0.62730275  1
  Li  Li847  1  0.00000000  0.75000000  0.87730275  1
  Li  Li848  1  0.25000000  1.00000000  0.12730275  1
  Li  Li849  1  0.25000000  1.00000000  0.37730275  1
  Li  Li850  1  0.25000000  1.00000000  0.62730275  1
  Li  Li851  1  0.25000000  1.00000000  0.87730275  1
  Li  Li852  1  0.25000000  0.25000000  0.12730275  1
  Li  Li853  1  0.25000000  0.25000000  0.37730275  1
  Li  Li854  1  0.25000000  0.25000000  0.62730275  1
  Li  Li855  1  0.25000000  0.25000000  0.87730275  1
  Li  Li856  1  0.25000000  0.50000000  0.12730275  1
  Li  Li857  1  0.25000000  0.50000000  0.37730275  1
  Li  Li858  1  0.25000000  0.50000000  0.62730275  1
  Li  Li859  1  0.25000000  0.50000000  0.87730275  1
  Li  Li860  1  0.25000000  0.75000000  0.12730275  1
  Li  Li861  1  0.25000000  0.75000000  0.37730275  1
  Li  Li862  1  0.25000000  0.75000000  0.62730275  1
  Li  Li863  1  0.25000000  0.75000000  0.87730275  1
  Li  Li864  1  0.50000000  1.00000000  0.12730275  1
  Li  Li865  1  0.50000000  1.00000000  0.37730275  1
  Li  Li866  1  0.50000000  1.00000000  0.62730275  1
  Li  Li867  1  0.50000000  1.00000000  0.87730275  1
  Li  Li868  1  0.50000000  0.25000000  0.12730275  1
  Li  Li869  1  0.50000000  0.25000000  0.37730275  1
  Li  Li870  1  0.50000000  0.25000000  0.62730275  1
  Li  Li871  1  0.50000000  0.25000000  0.87730275  1
  Li  Li872  1  0.50000000  0.50000000  0.12730275  1
  Li  Li873  1  0.50000000  0.50000000  0.37730275  1
  Li  Li874  1  0.50000000  0.50000000  0.62730275  1
  Li  Li875  1  0.50000000  0.50000000  0.87730275  1
  Li  Li876  1  0.50000000  0.75000000  0.12730275  1
  Li  Li877  1  0.50000000  0.75000000  0.37730275  1
  Li  Li878  1  0.50000000  0.75000000  0.62730275  1
  Li  Li879  1  0.50000000  0.75000000  0.87730275  1
  Li  Li880  1  0.75000000  0.00000000  0.12730275  1
  Li  Li881  1  0.75000000  0.00000000  0.37730275  1
  Li  Li882  1  0.75000000  0.00000000  0.62730275  1
  Li  Li883  1  0.75000000  0.00000000  0.87730275  1
  Li  Li884  1  0.75000000  0.25000000  0.12730275  1
  Li  Li885  1  0.75000000  0.25000000  0.37730275  1
  Li  Li886  1  0.75000000  0.25000000  0.62730275  1
  Li  Li887  1  0.75000000  0.25000000  0.87730275  1
  Li  Li888  1  0.75000000  0.50000000  0.12730275  1
  Li  Li889  1  0.75000000  0.50000000  0.37730275  1
  Li  Li890  1  0.75000000  0.50000000  0.62730275  1
  Li  Li891  1  0.75000000  0.50000000  0.87730275  1
  Li  Li892  1  0.75000000  0.75000000  0.12730275  1
  Li  Li893  1  0.75000000  0.75000000  0.37730275  1
  Li  Li894  1  0.75000000  0.75000000  0.62730275  1
  Li  Li895  1  0.75000000  0.75000000  0.87730275  1
  W  W896  1  0.08333325  0.16666675  0.22560300  1
  W  W897  1  0.08333325  0.16666675  0.47560300  1
  W  W898  1  0.08333325  0.16666675  0.72560300  1
  W  W899  1  0.08333325  0.16666675  0.97560300  1
  W  W900  1  0.08333325  0.41666675  0.22560300  1
  W  W901  1  0.08333325  0.41666675  0.47560300  1
  W  W902  1  0.08333325  0.41666675  0.72560300  1
  W  W903  1  0.08333325  0.41666675  0.97560300  1
  W  W904  1  0.08333325  0.66666675  0.22560300  1
  W  W905  1  0.08333325  0.66666675  0.47560300  1
  W  W906  1  0.08333325  0.66666675  0.72560300  1
  W  W907  1  0.08333325  0.66666675  0.97560300  1
  W  W908  1  0.08333325  0.91666675  0.22560300  1
  W  W909  1  0.08333325  0.91666675  0.47560300  1
  W  W910  1  0.08333325  0.91666675  0.72560300  1
  W  W911  1  0.08333325  0.91666675  0.97560300  1
  W  W912  1  0.33333325  0.16666675  0.22560300  1
  W  W913  1  0.33333325  0.16666675  0.47560300  1
  W  W914  1  0.33333325  0.16666675  0.72560300  1
  W  W915  1  0.33333325  0.16666675  0.97560300  1
  W  W916  1  0.33333325  0.41666675  0.22560300  1
  W  W917  1  0.33333325  0.41666675  0.47560300  1
  W  W918  1  0.33333325  0.41666675  0.72560300  1
  W  W919  1  0.33333325  0.41666675  0.97560300  1
  W  W920  1  0.33333325  0.66666675  0.22560300  1
  W  W921  1  0.33333325  0.66666675  0.47560300  1
  W  W922  1  0.33333325  0.66666675  0.72560300  1
  W  W923  1  0.33333325  0.66666675  0.97560300  1
  W  W924  1  0.33333325  0.91666675  0.22560300  1
  W  W925  1  0.33333325  0.91666675  0.47560300  1
  W  W926  1  0.33333325  0.91666675  0.72560300  1
  W  W927  1  0.33333325  0.91666675  0.97560300  1
  W  W928  1  0.58333325  0.16666675  0.22560300  1
  W  W929  1  0.58333325  0.16666675  0.47560300  1
  W  W930  1  0.58333325  0.16666675  0.72560300  1
  W  W931  1  0.58333325  0.16666675  0.97560300  1
  W  W932  1  0.58333325  0.41666675  0.22560300  1
  W  W933  1  0.58333325  0.41666675  0.47560300  1
  W  W934  1  0.58333325  0.41666675  0.72560300  1
  W  W935  1  0.58333325  0.41666675  0.97560300  1
  W  W936  1  0.58333325  0.66666675  0.22560300  1
  W  W937  1  0.58333325  0.66666675  0.47560300  1
  W  W938  1  0.58333325  0.66666675  0.72560300  1
  W  W939  1  0.58333325  0.66666675  0.97560300  1
  W  W940  1  0.58333325  0.91666675  0.22560300  1
  W  W941  1  0.58333325  0.91666675  0.47560300  1
  W  W942  1  0.58333325  0.91666675  0.72560300  1
  W  W943  1  0.58333325  0.91666675  0.97560300  1
  W  W944  1  0.83333325  0.16666675  0.22560300  1
  W  W945  1  0.83333325  0.16666675  0.47560300  1
  W  W946  1  0.83333325  0.16666675  0.72560300  1
  W  W947  1  0.83333325  0.16666675  0.97560300  1
  W  W948  1  0.83333325  0.41666675  0.22560300  1
  W  W949  1  0.83333325  0.41666675  0.47560300  1
  W  W950  1  0.83333325  0.41666675  0.72560300  1
  W  W951  1  0.83333325  0.41666675  0.97560300  1
  W  W952  1  0.83333325  0.66666675  0.22560300  1
  W  W953  1  0.83333325  0.66666675  0.47560300  1
  W  W954  1  0.83333325  0.66666675  0.72560300  1
  W  W955  1  0.83333325  0.66666675  0.97560300  1
  W  W956  1  0.83333325  0.91666675  0.22560300  1
  W  W957  1  0.83333325  0.91666675  0.47560300  1
  W  W958  1  0.83333325  0.91666675  0.72560300  1
  W  W959  1  0.83333325  0.91666675  0.97560300  1
  W  W960  1  0.16666675  0.08333325  0.19977600  1
  W  W961  1  0.16666675  0.08333325  0.44977600  1
  W  W962  1  0.16666675  0.08333325  0.69977600  1
  W  W963  1  0.16666675  0.08333325  0.94977600  1
  W  W964  1  0.16666675  0.33333325  0.19977600  1
  W  W965  1  0.16666675  0.33333325  0.44977600  1
  W  W966  1  0.16666675  0.33333325  0.69977600  1
  W  W967  1  0.16666675  0.33333325  0.94977600  1
  W  W968  1  0.16666675  0.58333325  0.19977600  1
  W  W969  1  0.16666675  0.58333325  0.44977600  1
  W  W970  1  0.16666675  0.58333325  0.69977600  1
  W  W971  1  0.16666675  0.58333325  0.94977600  1
  W  W972  1  0.16666675  0.83333325  0.19977600  1
  W  W973  1  0.16666675  0.83333325  0.44977600  1
  W  W974  1  0.16666675  0.83333325  0.69977600  1
  W  W975  1  0.16666675  0.83333325  0.94977600  1
  W  W976  1  0.41666675  0.08333325  0.19977600  1
  W  W977  1  0.41666675  0.08333325  0.44977600  1
  W  W978  1  0.41666675  0.08333325  0.69977600  1
  W  W979  1  0.41666675  0.08333325  0.94977600  1
  W  W980  1  0.41666675  0.33333325  0.19977600  1
  W  W981  1  0.41666675  0.33333325  0.44977600  1
  W  W982  1  0.41666675  0.33333325  0.69977600  1
  W  W983  1  0.41666675  0.33333325  0.94977600  1
  W  W984  1  0.41666675  0.58333325  0.19977600  1
  W  W985  1  0.41666675  0.58333325  0.44977600  1
  W  W986  1  0.41666675  0.58333325  0.69977600  1
  W  W987  1  0.41666675  0.58333325  0.94977600  1
  W  W988  1  0.41666675  0.83333325  0.19977600  1
  W  W989  1  0.41666675  0.83333325  0.44977600  1
  W  W990  1  0.41666675  0.83333325  0.69977600  1
  W  W991  1  0.41666675  0.83333325  0.94977600  1
  W  W992  1  0.66666675  0.08333325  0.19977600  1
  W  W993  1  0.66666675  0.08333325  0.44977600  1
  W  W994  1  0.66666675  0.08333325  0.69977600  1
  W  W995  1  0.66666675  0.08333325  0.94977600  1
  W  W996  1  0.66666675  0.33333325  0.19977600  1
  W  W997  1  0.66666675  0.33333325  0.44977600  1
  W  W998  1  0.66666675  0.33333325  0.69977600  1
  W  W999  1  0.66666675  0.33333325  0.94977600  1
  W  W1000  1  0.66666675  0.58333325  0.19977600  1
  W  W1001  1  0.66666675  0.58333325  0.44977600  1
  W  W1002  1  0.66666675  0.58333325  0.69977600  1
  W  W1003  1  0.66666675  0.58333325  0.94977600  1
  W  W1004  1  0.66666675  0.83333325  0.19977600  1
  W  W1005  1  0.66666675  0.83333325  0.44977600  1
  W  W1006  1  0.66666675  0.83333325  0.69977600  1
  W  W1007  1  0.66666675  0.83333325  0.94977600  1
  W  W1008  1  0.91666675  0.08333325  0.19977600  1
  W  W1009  1  0.91666675  0.08333325  0.44977600  1
  W  W1010  1  0.91666675  0.08333325  0.69977600  1
  W  W1011  1  0.91666675  0.08333325  0.94977600  1
  W  W1012  1  0.91666675  0.33333325  0.19977600  1
  W  W1013  1  0.91666675  0.33333325  0.44977600  1
  W  W1014  1  0.91666675  0.33333325  0.69977600  1
  W  W1015  1  0.91666675  0.33333325  0.94977600  1
  W  W1016  1  0.91666675  0.58333325  0.19977600  1
  W  W1017  1  0.91666675  0.58333325  0.44977600  1
  W  W1018  1  0.91666675  0.58333325  0.69977600  1
  W  W1019  1  0.91666675  0.58333325  0.94977600  1
  W  W1020  1  0.91666675  0.83333325  0.19977600  1
  W  W1021  1  0.91666675  0.83333325  0.44977600  1
  W  W1022  1  0.91666675  0.83333325  0.69977600  1
  W  W1023  1  0.91666675  0.83333325  0.94977600  1
  W  W1024  1  0.08333325  0.16666675  0.07477600  1
  W  W1025  1  0.08333325  0.16666675  0.32477600  1
  W  W1026  1  0.08333325  0.16666675  0.57477600  1
  W  W1027  1  0.08333325  0.16666675  0.82477600  1
  W  W1028  1  0.08333325  0.41666675  0.07477600  1
  W  W1029  1  0.08333325  0.41666675  0.32477600  1
  W  W1030  1  0.08333325  0.41666675  0.57477600  1
  W  W1031  1  0.08333325  0.41666675  0.82477600  1
  W  W1032  1  0.08333325  0.66666675  0.07477600  1
  W  W1033  1  0.08333325  0.66666675  0.32477600  1
  W  W1034  1  0.08333325  0.66666675  0.57477600  1
  W  W1035  1  0.08333325  0.66666675  0.82477600  1
  W  W1036  1  0.08333325  0.91666675  0.07477600  1
  W  W1037  1  0.08333325  0.91666675  0.32477600  1
  W  W1038  1  0.08333325  0.91666675  0.57477600  1
  W  W1039  1  0.08333325  0.91666675  0.82477600  1
  W  W1040  1  0.33333325  0.16666675  0.07477600  1
  W  W1041  1  0.33333325  0.16666675  0.32477600  1
  W  W1042  1  0.33333325  0.16666675  0.57477600  1
  W  W1043  1  0.33333325  0.16666675  0.82477600  1
  W  W1044  1  0.33333325  0.41666675  0.07477600  1
  W  W1045  1  0.33333325  0.41666675  0.32477600  1
  W  W1046  1  0.33333325  0.41666675  0.57477600  1
  W  W1047  1  0.33333325  0.41666675  0.82477600  1
  W  W1048  1  0.33333325  0.66666675  0.07477600  1
  W  W1049  1  0.33333325  0.66666675  0.32477600  1
  W  W1050  1  0.33333325  0.66666675  0.57477600  1
  W  W1051  1  0.33333325  0.66666675  0.82477600  1
  W  W1052  1  0.33333325  0.91666675  0.07477600  1
  W  W1053  1  0.33333325  0.91666675  0.32477600  1
  W  W1054  1  0.33333325  0.91666675  0.57477600  1
  W  W1055  1  0.33333325  0.91666675  0.82477600  1
  W  W1056  1  0.58333325  0.16666675  0.07477600  1
  W  W1057  1  0.58333325  0.16666675  0.32477600  1
  W  W1058  1  0.58333325  0.16666675  0.57477600  1
  W  W1059  1  0.58333325  0.16666675  0.82477600  1
  W  W1060  1  0.58333325  0.41666675  0.07477600  1
  W  W1061  1  0.58333325  0.41666675  0.32477600  1
  W  W1062  1  0.58333325  0.41666675  0.57477600  1
  W  W1063  1  0.58333325  0.41666675  0.82477600  1
  W  W1064  1  0.58333325  0.66666675  0.07477600  1
  W  W1065  1  0.58333325  0.66666675  0.32477600  1
  W  W1066  1  0.58333325  0.66666675  0.57477600  1
  W  W1067  1  0.58333325  0.66666675  0.82477600  1
  W  W1068  1  0.58333325  0.91666675  0.07477600  1
  W  W1069  1  0.58333325  0.91666675  0.32477600  1
  W  W1070  1  0.58333325  0.91666675  0.57477600  1
  W  W1071  1  0.58333325  0.91666675  0.82477600  1
  W  W1072  1  0.83333325  0.16666675  0.07477600  1
  W  W1073  1  0.83333325  0.16666675  0.32477600  1
  W  W1074  1  0.83333325  0.16666675  0.57477600  1
  W  W1075  1  0.83333325  0.16666675  0.82477600  1
  W  W1076  1  0.83333325  0.41666675  0.07477600  1
  W  W1077  1  0.83333325  0.41666675  0.32477600  1
  W  W1078  1  0.83333325  0.41666675  0.57477600  1
  W  W1079  1  0.83333325  0.41666675  0.82477600  1
  W  W1080  1  0.83333325  0.66666675  0.07477600  1
  W  W1081  1  0.83333325  0.66666675  0.32477600  1
  W  W1082  1  0.83333325  0.66666675  0.57477600  1
  W  W1083  1  0.83333325  0.66666675  0.82477600  1
  W  W1084  1  0.83333325  0.91666675  0.07477600  1
  W  W1085  1  0.83333325  0.91666675  0.32477600  1
  W  W1086  1  0.83333325  0.91666675  0.57477600  1
  W  W1087  1  0.83333325  0.91666675  0.82477600  1
  W  W1088  1  0.16666675  0.08333325  0.10060300  1
  W  W1089  1  0.16666675  0.08333325  0.35060300  1
  W  W1090  1  0.16666675  0.08333325  0.60060300  1
  W  W1091  1  0.16666675  0.08333325  0.85060300  1
  W  W1092  1  0.16666675  0.33333325  0.10060300  1
  W  W1093  1  0.16666675  0.33333325  0.35060300  1
  W  W1094  1  0.16666675  0.33333325  0.60060300  1
  W  W1095  1  0.16666675  0.33333325  0.85060300  1
  W  W1096  1  0.16666675  0.58333325  0.10060300  1
  W  W1097  1  0.16666675  0.58333325  0.35060300  1
  W  W1098  1  0.16666675  0.58333325  0.60060300  1
  W  W1099  1  0.16666675  0.58333325  0.85060300  1
  W  W1100  1  0.16666675  0.83333325  0.10060300  1
  W  W1101  1  0.16666675  0.83333325  0.35060300  1
  W  W1102  1  0.16666675  0.83333325  0.60060300  1
  W  W1103  1  0.16666675  0.83333325  0.85060300  1
  W  W1104  1  0.41666675  0.08333325  0.10060300  1
  W  W1105  1  0.41666675  0.08333325  0.35060300  1
  W  W1106  1  0.41666675  0.08333325  0.60060300  1
  W  W1107  1  0.41666675  0.08333325  0.85060300  1
  W  W1108  1  0.41666675  0.33333325  0.10060300  1
  W  W1109  1  0.41666675  0.33333325  0.35060300  1
  W  W1110  1  0.41666675  0.33333325  0.60060300  1
  W  W1111  1  0.41666675  0.33333325  0.85060300  1
  W  W1112  1  0.41666675  0.58333325  0.10060300  1
  W  W1113  1  0.41666675  0.58333325  0.35060300  1
  W  W1114  1  0.41666675  0.58333325  0.60060300  1
  W  W1115  1  0.41666675  0.58333325  0.85060300  1
  W  W1116  1  0.41666675  0.83333325  0.10060300  1
  W  W1117  1  0.41666675  0.83333325  0.35060300  1
  W  W1118  1  0.41666675  0.83333325  0.60060300  1
  W  W1119  1  0.41666675  0.83333325  0.85060300  1
  W  W1120  1  0.66666675  0.08333325  0.10060300  1
  W  W1121  1  0.66666675  0.08333325  0.35060300  1
  W  W1122  1  0.66666675  0.08333325  0.60060300  1
  W  W1123  1  0.66666675  0.08333325  0.85060300  1
  W  W1124  1  0.66666675  0.33333325  0.10060300  1
  W  W1125  1  0.66666675  0.33333325  0.35060300  1
  W  W1126  1  0.66666675  0.33333325  0.60060300  1
  W  W1127  1  0.66666675  0.33333325  0.85060300  1
  W  W1128  1  0.66666675  0.58333325  0.10060300  1
  W  W1129  1  0.66666675  0.58333325  0.35060300  1
  W  W1130  1  0.66666675  0.58333325  0.60060300  1
  W  W1131  1  0.66666675  0.58333325  0.85060300  1
  W  W1132  1  0.66666675  0.83333325  0.10060300  1
  W  W1133  1  0.66666675  0.83333325  0.35060300  1
  W  W1134  1  0.66666675  0.83333325  0.60060300  1
  W  W1135  1  0.66666675  0.83333325  0.85060300  1
  W  W1136  1  0.91666675  0.08333325  0.10060300  1
  W  W1137  1  0.91666675  0.08333325  0.35060300  1
  W  W1138  1  0.91666675  0.08333325  0.60060300  1
  W  W1139  1  0.91666675  0.08333325  0.85060300  1
  W  W1140  1  0.91666675  0.33333325  0.10060300  1
  W  W1141  1  0.91666675  0.33333325  0.35060300  1
  W  W1142  1  0.91666675  0.33333325  0.60060300  1
  W  W1143  1  0.91666675  0.33333325  0.85060300  1
  W  W1144  1  0.91666675  0.58333325  0.10060300  1
  W  W1145  1  0.91666675  0.58333325  0.35060300  1
  W  W1146  1  0.91666675  0.58333325  0.60060300  1
  W  W1147  1  0.91666675  0.58333325  0.85060300  1
  W  W1148  1  0.91666675  0.83333325  0.10060300  1
  W  W1149  1  0.91666675  0.83333325  0.35060300  1
  W  W1150  1  0.91666675  0.83333325  0.60060300  1
  W  W1151  1  0.91666675  0.83333325  0.85060300  1
  W  W1152  1  0.08333325  0.16666675  0.14982050  1
  W  W1153  1  0.08333325  0.16666675  0.39982050  1
  W  W1154  1  0.08333325  0.16666675  0.64982050  1
  W  W1155  1  0.08333325  0.16666675  0.89982050  1
  W  W1156  1  0.08333325  0.41666675  0.14982050  1
  W  W1157  1  0.08333325  0.41666675  0.39982050  1
  W  W1158  1  0.08333325  0.41666675  0.64982050  1
  W  W1159  1  0.08333325  0.41666675  0.89982050  1
  W  W1160  1  0.08333325  0.66666675  0.14982050  1
  W  W1161  1  0.08333325  0.66666675  0.39982050  1
  W  W1162  1  0.08333325  0.66666675  0.64982050  1
  W  W1163  1  0.08333325  0.66666675  0.89982050  1
  W  W1164  1  0.08333325  0.91666675  0.14982050  1
  W  W1165  1  0.08333325  0.91666675  0.39982050  1
  W  W1166  1  0.08333325  0.91666675  0.64982050  1
  W  W1167  1  0.08333325  0.91666675  0.89982050  1
  W  W1168  1  0.33333325  0.16666675  0.14982050  1
  W  W1169  1  0.33333325  0.16666675  0.39982050  1
  W  W1170  1  0.33333325  0.16666675  0.64982050  1
  W  W1171  1  0.33333325  0.16666675  0.89982050  1
  W  W1172  1  0.33333325  0.41666675  0.14982050  1
  W  W1173  1  0.33333325  0.41666675  0.39982050  1
  W  W1174  1  0.33333325  0.41666675  0.64982050  1
  W  W1175  1  0.33333325  0.41666675  0.89982050  1
  W  W1176  1  0.33333325  0.66666675  0.14982050  1
  W  W1177  1  0.33333325  0.66666675  0.39982050  1
  W  W1178  1  0.33333325  0.66666675  0.64982050  1
  W  W1179  1  0.33333325  0.66666675  0.89982050  1
  W  W1180  1  0.33333325  0.91666675  0.14982050  1
  W  W1181  1  0.33333325  0.91666675  0.39982050  1
  W  W1182  1  0.33333325  0.91666675  0.64982050  1
  W  W1183  1  0.33333325  0.91666675  0.89982050  1
  W  W1184  1  0.58333325  0.16666675  0.14982050  1
  W  W1185  1  0.58333325  0.16666675  0.39982050  1
  W  W1186  1  0.58333325  0.16666675  0.64982050  1
  W  W1187  1  0.58333325  0.16666675  0.89982050  1
  W  W1188  1  0.58333325  0.41666675  0.14982050  1
  W  W1189  1  0.58333325  0.41666675  0.39982050  1
  W  W1190  1  0.58333325  0.41666675  0.64982050  1
  W  W1191  1  0.58333325  0.41666675  0.89982050  1
  W  W1192  1  0.58333325  0.66666675  0.14982050  1
  W  W1193  1  0.58333325  0.66666675  0.39982050  1
  W  W1194  1  0.58333325  0.66666675  0.64982050  1
  W  W1195  1  0.58333325  0.66666675  0.89982050  1
  W  W1196  1  0.58333325  0.91666675  0.14982050  1
  W  W1197  1  0.58333325  0.91666675  0.39982050  1
  W  W1198  1  0.58333325  0.91666675  0.64982050  1
  W  W1199  1  0.58333325  0.91666675  0.89982050  1
  W  W1200  1  0.83333325  0.16666675  0.14982050  1
  W  W1201  1  0.83333325  0.16666675  0.39982050  1
  W  W1202  1  0.83333325  0.16666675  0.64982050  1
  W  W1203  1  0.83333325  0.16666675  0.89982050  1
  W  W1204  1  0.83333325  0.41666675  0.14982050  1
  W  W1205  1  0.83333325  0.41666675  0.39982050  1
  W  W1206  1  0.83333325  0.41666675  0.64982050  1
  W  W1207  1  0.83333325  0.41666675  0.89982050  1
  W  W1208  1  0.83333325  0.66666675  0.14982050  1
  W  W1209  1  0.83333325  0.66666675  0.39982050  1
  W  W1210  1  0.83333325  0.66666675  0.64982050  1
  W  W1211  1  0.83333325  0.66666675  0.89982050  1
  W  W1212  1  0.83333325  0.91666675  0.14982050  1
  W  W1213  1  0.83333325  0.91666675  0.39982050  1
  W  W1214  1  0.83333325  0.91666675  0.64982050  1
  W  W1215  1  0.83333325  0.91666675  0.89982050  1
  W  W1216  1  0.16666675  0.08333325  0.02482050  1
  W  W1217  1  0.16666675  0.08333325  0.27482050  1
  W  W1218  1  0.16666675  0.08333325  0.52482050  1
  W  W1219  1  0.16666675  0.08333325  0.77482050  1
  W  W1220  1  0.16666675  0.33333325  0.02482050  1
  W  W1221  1  0.16666675  0.33333325  0.27482050  1
  W  W1222  1  0.16666675  0.33333325  0.52482050  1
  W  W1223  1  0.16666675  0.33333325  0.77482050  1
  W  W1224  1  0.16666675  0.58333325  0.02482050  1
  W  W1225  1  0.16666675  0.58333325  0.27482050  1
  W  W1226  1  0.16666675  0.58333325  0.52482050  1
  W  W1227  1  0.16666675  0.58333325  0.77482050  1
  W  W1228  1  0.16666675  0.83333325  0.02482050  1
  W  W1229  1  0.16666675  0.83333325  0.27482050  1
  W  W1230  1  0.16666675  0.83333325  0.52482050  1
  W  W1231  1  0.16666675  0.83333325  0.77482050  1
  W  W1232  1  0.41666675  0.08333325  0.02482050  1
  W  W1233  1  0.41666675  0.08333325  0.27482050  1
  W  W1234  1  0.41666675  0.08333325  0.52482050  1
  W  W1235  1  0.41666675  0.08333325  0.77482050  1
  W  W1236  1  0.41666675  0.33333325  0.02482050  1
  W  W1237  1  0.41666675  0.33333325  0.27482050  1
  W  W1238  1  0.41666675  0.33333325  0.52482050  1
  W  W1239  1  0.41666675  0.33333325  0.77482050  1
  W  W1240  1  0.41666675  0.58333325  0.02482050  1
  W  W1241  1  0.41666675  0.58333325  0.27482050  1
  W  W1242  1  0.41666675  0.58333325  0.52482050  1
  W  W1243  1  0.41666675  0.58333325  0.77482050  1
  W  W1244  1  0.41666675  0.83333325  0.02482050  1
  W  W1245  1  0.41666675  0.83333325  0.27482050  1
  W  W1246  1  0.41666675  0.83333325  0.52482050  1
  W  W1247  1  0.41666675  0.83333325  0.77482050  1
  W  W1248  1  0.66666675  0.08333325  0.02482050  1
  W  W1249  1  0.66666675  0.08333325  0.27482050  1
  W  W1250  1  0.66666675  0.08333325  0.52482050  1
  W  W1251  1  0.66666675  0.08333325  0.77482050  1
  W  W1252  1  0.66666675  0.33333325  0.02482050  1
  W  W1253  1  0.66666675  0.33333325  0.27482050  1
  W  W1254  1  0.66666675  0.33333325  0.52482050  1
  W  W1255  1  0.66666675  0.33333325  0.77482050  1
  W  W1256  1  0.66666675  0.58333325  0.02482050  1
  W  W1257  1  0.66666675  0.58333325  0.27482050  1
  W  W1258  1  0.66666675  0.58333325  0.52482050  1
  W  W1259  1  0.66666675  0.58333325  0.77482050  1
  W  W1260  1  0.66666675  0.83333325  0.02482050  1
  W  W1261  1  0.66666675  0.83333325  0.27482050  1
  W  W1262  1  0.66666675  0.83333325  0.52482050  1
  W  W1263  1  0.66666675  0.83333325  0.77482050  1
  W  W1264  1  0.91666675  0.08333325  0.02482050  1
  W  W1265  1  0.91666675  0.08333325  0.27482050  1
  W  W1266  1  0.91666675  0.08333325  0.52482050  1
  W  W1267  1  0.91666675  0.08333325  0.77482050  1
  W  W1268  1  0.91666675  0.33333325  0.02482050  1
  W  W1269  1  0.91666675  0.33333325  0.27482050  1
  W  W1270  1  0.91666675  0.33333325  0.52482050  1
  W  W1271  1  0.91666675  0.33333325  0.77482050  1
  W  W1272  1  0.91666675  0.58333325  0.02482050  1
  W  W1273  1  0.91666675  0.58333325  0.27482050  1
  W  W1274  1  0.91666675  0.58333325  0.52482050  1
  W  W1275  1  0.91666675  0.58333325  0.77482050  1
  W  W1276  1  0.91666675  0.83333325  0.02482050  1
  W  W1277  1  0.91666675  0.83333325  0.27482050  1
  W  W1278  1  0.91666675  0.83333325  0.52482050  1
  W  W1279  1  0.91666675  0.83333325  0.77482050  1
  O  O1280  1  0.08792650  0.04396325  0.01320450  1
  O  O1281  1  0.08792650  0.04396325  0.26320450  1
  O  O1282  1  0.08792650  0.04396325  0.51320450  1
  O  O1283  1  0.08792650  0.04396325  0.76320450  1
  O  O1284  1  0.08792650  0.29396325  0.01320450  1
  O  O1285  1  0.08792650  0.29396325  0.26320450  1
  O  O1286  1  0.08792650  0.29396325  0.51320450  1
  O  O1287  1  0.08792650  0.29396325  0.76320450  1
  O  O1288  1  0.08792650  0.54396325  0.01320450  1
  O  O1289  1  0.08792650  0.54396325  0.26320450  1
  O  O1290  1  0.08792650  0.54396325  0.51320450  1
  O  O1291  1  0.08792650  0.54396325  0.76320450  1
  O  O1292  1  0.08792650  0.79396325  0.01320450  1
  O  O1293  1  0.08792650  0.79396325  0.26320450  1
  O  O1294  1  0.08792650  0.79396325  0.51320450  1
  O  O1295  1  0.08792650  0.79396325  0.76320450  1
  O  O1296  1  0.33792650  0.04396325  0.01320450  1
  O  O1297  1  0.33792650  0.04396325  0.26320450  1
  O  O1298  1  0.33792650  0.04396325  0.51320450  1
  O  O1299  1  0.33792650  0.04396325  0.76320450  1
  O  O1300  1  0.33792650  0.29396325  0.01320450  1
  O  O1301  1  0.33792650  0.29396325  0.26320450  1
  O  O1302  1  0.33792650  0.29396325  0.51320450  1
  O  O1303  1  0.33792650  0.29396325  0.76320450  1
  O  O1304  1  0.33792650  0.54396325  0.01320450  1
  O  O1305  1  0.33792650  0.54396325  0.26320450  1
  O  O1306  1  0.33792650  0.54396325  0.51320450  1
  O  O1307  1  0.33792650  0.54396325  0.76320450  1
  O  O1308  1  0.33792650  0.79396325  0.01320450  1
  O  O1309  1  0.33792650  0.79396325  0.26320450  1
  O  O1310  1  0.33792650  0.79396325  0.51320450  1
  O  O1311  1  0.33792650  0.79396325  0.76320450  1
  O  O1312  1  0.58792650  0.04396325  0.01320450  1
  O  O1313  1  0.58792650  0.04396325  0.26320450  1
  O  O1314  1  0.58792650  0.04396325  0.51320450  1
  O  O1315  1  0.58792650  0.04396325  0.76320450  1
  O  O1316  1  0.58792650  0.29396325  0.01320450  1
  O  O1317  1  0.58792650  0.29396325  0.26320450  1
  O  O1318  1  0.58792650  0.29396325  0.51320450  1
  O  O1319  1  0.58792650  0.29396325  0.76320450  1
  O  O1320  1  0.58792650  0.54396325  0.01320450  1
  O  O1321  1  0.58792650  0.54396325  0.26320450  1
  O  O1322  1  0.58792650  0.54396325  0.51320450  1
  O  O1323  1  0.58792650  0.54396325  0.76320450  1
  O  O1324  1  0.58792650  0.79396325  0.01320450  1
  O  O1325  1  0.58792650  0.79396325  0.26320450  1
  O  O1326  1  0.58792650  0.79396325  0.51320450  1
  O  O1327  1  0.58792650  0.79396325  0.76320450  1
  O  O1328  1  0.83792650  0.04396325  0.01320450  1
  O  O1329  1  0.83792650  0.04396325  0.26320450  1
  O  O1330  1  0.83792650  0.04396325  0.51320450  1
  O  O1331  1  0.83792650  0.04396325  0.76320450  1
  O  O1332  1  0.83792650  0.29396325  0.01320450  1
  O  O1333  1  0.83792650  0.29396325  0.26320450  1
  O  O1334  1  0.83792650  0.29396325  0.51320450  1
  O  O1335  1  0.83792650  0.29396325  0.76320450  1
  O  O1336  1  0.83792650  0.54396325  0.01320450  1
  O  O1337  1  0.83792650  0.54396325  0.26320450  1
  O  O1338  1  0.83792650  0.54396325  0.51320450  1
  O  O1339  1  0.83792650  0.54396325  0.76320450  1
  O  O1340  1  0.83792650  0.79396325  0.01320450  1
  O  O1341  1  0.83792650  0.79396325  0.26320450  1
  O  O1342  1  0.83792650  0.79396325  0.51320450  1
  O  O1343  1  0.83792650  0.79396325  0.76320450  1
  O  O1344  1  0.04420775  0.20579225  0.23570925  1
  O  O1345  1  0.04420775  0.20579225  0.48570925  1
  O  O1346  1  0.04420775  0.20579225  0.73570925  1
  O  O1347  1  0.04420775  0.20579225  0.98570925  1
  O  O1348  1  0.04420775  0.45579225  0.23570925  1
  O  O1349  1  0.04420775  0.45579225  0.48570925  1
  O  O1350  1  0.04420775  0.45579225  0.73570925  1
  O  O1351  1  0.04420775  0.45579225  0.98570925  1
  O  O1352  1  0.04420775  0.70579225  0.23570925  1
  O  O1353  1  0.04420775  0.70579225  0.48570925  1
  O  O1354  1  0.04420775  0.70579225  0.73570925  1
  O  O1355  1  0.04420775  0.70579225  0.98570925  1
  O  O1356  1  0.04420775  0.95579225  0.23570925  1
  O  O1357  1  0.04420775  0.95579225  0.48570925  1
  O  O1358  1  0.04420775  0.95579225  0.73570925  1
  O  O1359  1  0.04420775  0.95579225  0.98570925  1
  O  O1360  1  0.29420775  0.20579225  0.23570925  1
  O  O1361  1  0.29420775  0.20579225  0.48570925  1
  O  O1362  1  0.29420775  0.20579225  0.73570925  1
  O  O1363  1  0.29420775  0.20579225  0.98570925  1
  O  O1364  1  0.29420775  0.45579225  0.23570925  1
  O  O1365  1  0.29420775  0.45579225  0.48570925  1
  O  O1366  1  0.29420775  0.45579225  0.73570925  1
  O  O1367  1  0.29420775  0.45579225  0.98570925  1
  O  O1368  1  0.29420775  0.70579225  0.23570925  1
  O  O1369  1  0.29420775  0.70579225  0.48570925  1
  O  O1370  1  0.29420775  0.70579225  0.73570925  1
  O  O1371  1  0.29420775  0.70579225  0.98570925  1
  O  O1372  1  0.29420775  0.95579225  0.23570925  1
  O  O1373  1  0.29420775  0.95579225  0.48570925  1
  O  O1374  1  0.29420775  0.95579225  0.73570925  1
  O  O1375  1  0.29420775  0.95579225  0.98570925  1
  O  O1376  1  0.54420775  0.20579225  0.23570925  1
  O  O1377  1  0.54420775  0.20579225  0.48570925  1
  O  O1378  1  0.54420775  0.20579225  0.73570925  1
  O  O1379  1  0.54420775  0.20579225  0.98570925  1
  O  O1380  1  0.54420775  0.45579225  0.23570925  1
  O  O1381  1  0.54420775  0.45579225  0.48570925  1
  O  O1382  1  0.54420775  0.45579225  0.73570925  1
  O  O1383  1  0.54420775  0.45579225  0.98570925  1
  O  O1384  1  0.54420775  0.70579225  0.23570925  1
  O  O1385  1  0.54420775  0.70579225  0.48570925  1
  O  O1386  1  0.54420775  0.70579225  0.73570925  1
  O  O1387  1  0.54420775  0.70579225  0.98570925  1
  O  O1388  1  0.54420775  0.95579225  0.23570925  1
  O  O1389  1  0.54420775  0.95579225  0.48570925  1
  O  O1390  1  0.54420775  0.95579225  0.73570925  1
  O  O1391  1  0.54420775  0.95579225  0.98570925  1
  O  O1392  1  0.79420775  0.20579225  0.23570925  1
  O  O1393  1  0.79420775  0.20579225  0.48570925  1
  O  O1394  1  0.79420775  0.20579225  0.73570925  1
  O  O1395  1  0.79420775  0.20579225  0.98570925  1
  O  O1396  1  0.79420775  0.45579225  0.23570925  1
  O  O1397  1  0.79420775  0.45579225  0.48570925  1
  O  O1398  1  0.79420775  0.45579225  0.73570925  1
  O  O1399  1  0.79420775  0.45579225  0.98570925  1
  O  O1400  1  0.79420775  0.70579225  0.23570925  1
  O  O1401  1  0.79420775  0.70579225  0.48570925  1
  O  O1402  1  0.79420775  0.70579225  0.73570925  1
  O  O1403  1  0.79420775  0.70579225  0.98570925  1
  O  O1404  1  0.79420775  0.95579225  0.23570925  1
  O  O1405  1  0.79420775  0.95579225  0.48570925  1
  O  O1406  1  0.79420775  0.95579225  0.73570925  1
  O  O1407  1  0.79420775  0.95579225  0.98570925  1
  O  O1408  1  0.12504450  0.00008900  0.08772075  1
  O  O1409  1  0.12504450  0.00008900  0.33772075  1
  O  O1410  1  0.12504450  0.00008900  0.58772075  1
  O  O1411  1  0.12504450  0.00008900  0.83772075  1
  O  O1412  1  0.12504450  0.25008900  0.08772075  1
  O  O1413  1  0.12504450  0.25008900  0.33772075  1
  O  O1414  1  0.12504450  0.25008900  0.58772075  1
  O  O1415  1  0.12504450  0.25008900  0.83772075  1
  O  O1416  1  0.12504450  0.50008900  0.08772075  1
  O  O1417  1  0.12504450  0.50008900  0.33772075  1
  O  O1418  1  0.12504450  0.50008900  0.58772075  1
  O  O1419  1  0.12504450  0.50008900  0.83772075  1
  O  O1420  1  0.12504450  0.75008900  0.08772075  1
  O  O1421  1  0.12504450  0.75008900  0.33772075  1
  O  O1422  1  0.12504450  0.75008900  0.58772075  1
  O  O1423  1  0.12504450  0.75008900  0.83772075  1
  O  O1424  1  0.37504450  0.00008900  0.08772075  1
  O  O1425  1  0.37504450  0.00008900  0.33772075  1
  O  O1426  1  0.37504450  0.00008900  0.58772075  1
  O  O1427  1  0.37504450  0.00008900  0.83772075  1
  O  O1428  1  0.37504450  0.25008900  0.08772075  1
  O  O1429  1  0.37504450  0.25008900  0.33772075  1
  O  O1430  1  0.37504450  0.25008900  0.58772075  1
  O  O1431  1  0.37504450  0.25008900  0.83772075  1
  O  O1432  1  0.37504450  0.50008900  0.08772075  1
  O  O1433  1  0.37504450  0.50008900  0.33772075  1
  O  O1434  1  0.37504450  0.50008900  0.58772075  1
  O  O1435  1  0.37504450  0.50008900  0.83772075  1
  O  O1436  1  0.37504450  0.75008900  0.08772075  1
  O  O1437  1  0.37504450  0.75008900  0.33772075  1
  O  O1438  1  0.37504450  0.75008900  0.58772075  1
  O  O1439  1  0.37504450  0.75008900  0.83772075  1
  O  O1440  1  0.62504450  0.00008900  0.08772075  1
  O  O1441  1  0.62504450  0.00008900  0.33772075  1
  O  O1442  1  0.62504450  0.00008900  0.58772075  1
  O  O1443  1  0.62504450  0.00008900  0.83772075  1
  O  O1444  1  0.62504450  0.25008900  0.08772075  1
  O  O1445  1  0.62504450  0.25008900  0.33772075  1
  O  O1446  1  0.62504450  0.25008900  0.58772075  1
  O  O1447  1  0.62504450  0.25008900  0.83772075  1
  O  O1448  1  0.62504450  0.50008900  0.08772075  1
  O  O1449  1  0.62504450  0.50008900  0.33772075  1
  O  O1450  1  0.62504450  0.50008900  0.58772075  1
  O  O1451  1  0.62504450  0.50008900  0.83772075  1
  O  O1452  1  0.62504450  0.75008900  0.08772075  1
  O  O1453  1  0.62504450  0.75008900  0.33772075  1
  O  O1454  1  0.62504450  0.75008900  0.58772075  1
  O  O1455  1  0.62504450  0.75008900  0.83772075  1
  O  O1456  1  0.87504450  0.00008900  0.08772075  1
  O  O1457  1  0.87504450  0.00008900  0.33772075  1
  O  O1458  1  0.87504450  0.00008900  0.58772075  1
  O  O1459  1  0.87504450  0.00008900  0.83772075  1
  O  O1460  1  0.87504450  0.25008900  0.08772075  1
  O  O1461  1  0.87504450  0.25008900  0.33772075  1
  O  O1462  1  0.87504450  0.25008900  0.58772075  1
  O  O1463  1  0.87504450  0.25008900  0.83772075  1
  O  O1464  1  0.87504450  0.50008900  0.08772075  1
  O  O1465  1  0.87504450  0.50008900  0.33772075  1
  O  O1466  1  0.87504450  0.50008900  0.58772075  1
  O  O1467  1  0.87504450  0.50008900  0.83772075  1
  O  O1468  1  0.87504450  0.75008900  0.08772075  1
  O  O1469  1  0.87504450  0.75008900  0.33772075  1
  O  O1470  1  0.87504450  0.75008900  0.58772075  1
  O  O1471  1  0.87504450  0.75008900  0.83772075  1
  O  O1472  1  0.20603675  0.16207350  0.01320450  1
  O  O1473  1  0.20603675  0.16207350  0.26320450  1
  O  O1474  1  0.20603675  0.16207350  0.51320450  1
  O  O1475  1  0.20603675  0.16207350  0.76320450  1
  O  O1476  1  0.20603675  0.41207350  0.01320450  1
  O  O1477  1  0.20603675  0.41207350  0.26320450  1
  O  O1478  1  0.20603675  0.41207350  0.51320450  1
  O  O1479  1  0.20603675  0.41207350  0.76320450  1
  O  O1480  1  0.20603675  0.66207350  0.01320450  1
  O  O1481  1  0.20603675  0.66207350  0.26320450  1
  O  O1482  1  0.20603675  0.66207350  0.51320450  1
  O  O1483  1  0.20603675  0.66207350  0.76320450  1
  O  O1484  1  0.20603675  0.91207350  0.01320450  1
  O  O1485  1  0.20603675  0.91207350  0.26320450  1
  O  O1486  1  0.20603675  0.91207350  0.51320450  1
  O  O1487  1  0.20603675  0.91207350  0.76320450  1
  O  O1488  1  0.45603675  0.16207350  0.01320450  1
  O  O1489  1  0.45603675  0.16207350  0.26320450  1
  O  O1490  1  0.45603675  0.16207350  0.51320450  1
  O  O1491  1  0.45603675  0.16207350  0.76320450  1
  O  O1492  1  0.45603675  0.41207350  0.01320450  1
  O  O1493  1  0.45603675  0.41207350  0.26320450  1
  O  O1494  1  0.45603675  0.41207350  0.51320450  1
  O  O1495  1  0.45603675  0.41207350  0.76320450  1
  O  O1496  1  0.45603675  0.66207350  0.01320450  1
  O  O1497  1  0.45603675  0.66207350  0.26320450  1
  O  O1498  1  0.45603675  0.66207350  0.51320450  1
  O  O1499  1  0.45603675  0.66207350  0.76320450  1
  O  O1500  1  0.45603675  0.91207350  0.01320450  1
  O  O1501  1  0.45603675  0.91207350  0.26320450  1
  O  O1502  1  0.45603675  0.91207350  0.51320450  1
  O  O1503  1  0.45603675  0.91207350  0.76320450  1
  O  O1504  1  0.70603675  0.16207350  0.01320450  1
  O  O1505  1  0.70603675  0.16207350  0.26320450  1
  O  O1506  1  0.70603675  0.16207350  0.51320450  1
  O  O1507  1  0.70603675  0.16207350  0.76320450  1
  O  O1508  1  0.70603675  0.41207350  0.01320450  1
  O  O1509  1  0.70603675  0.41207350  0.26320450  1
  O  O1510  1  0.70603675  0.41207350  0.51320450  1
  O  O1511  1  0.70603675  0.41207350  0.76320450  1
  O  O1512  1  0.70603675  0.66207350  0.01320450  1
  O  O1513  1  0.70603675  0.66207350  0.26320450  1
  O  O1514  1  0.70603675  0.66207350  0.51320450  1
  O  O1515  1  0.70603675  0.66207350  0.76320450  1
  O  O1516  1  0.70603675  0.91207350  0.01320450  1
  O  O1517  1  0.70603675  0.91207350  0.26320450  1
  O  O1518  1  0.70603675  0.91207350  0.51320450  1
  O  O1519  1  0.70603675  0.91207350  0.76320450  1
  O  O1520  1  0.95603675  0.16207350  0.01320450  1
  O  O1521  1  0.95603675  0.16207350  0.26320450  1
  O  O1522  1  0.95603675  0.16207350  0.51320450  1
  O  O1523  1  0.95603675  0.16207350  0.76320450  1
  O  O1524  1  0.95603675  0.41207350  0.01320450  1
  O  O1525  1  0.95603675  0.41207350  0.26320450  1
  O  O1526  1  0.95603675  0.41207350  0.51320450  1
  O  O1527  1  0.95603675  0.41207350  0.76320450  1
  O  O1528  1  0.95603675  0.66207350  0.01320450  1
  O  O1529  1  0.95603675  0.66207350  0.26320450  1
  O  O1530  1  0.95603675  0.66207350  0.51320450  1
  O  O1531  1  0.95603675  0.66207350  0.76320450  1
  O  O1532  1  0.95603675  0.91207350  0.01320450  1
  O  O1533  1  0.95603675  0.91207350  0.26320450  1
  O  O1534  1  0.95603675  0.91207350  0.51320450  1
  O  O1535  1  0.95603675  0.91207350  0.76320450  1
  O  O1536  1  0.12266625  0.24533250  0.16170400  1
  O  O1537  1  0.12266625  0.24533250  0.41170400  1
  O  O1538  1  0.12266625  0.24533250  0.66170400  1
  O  O1539  1  0.12266625  0.24533250  0.91170400  1
  O  O1540  1  0.12266625  0.49533250  0.16170400  1
  O  O1541  1  0.12266625  0.49533250  0.41170400  1
  O  O1542  1  0.12266625  0.49533250  0.66170400  1
  O  O1543  1  0.12266625  0.49533250  0.91170400  1
  O  O1544  1  0.12266625  0.74533250  0.16170400  1
  O  O1545  1  0.12266625  0.74533250  0.41170400  1
  O  O1546  1  0.12266625  0.74533250  0.66170400  1
  O  O1547  1  0.12266625  0.74533250  0.91170400  1
  O  O1548  1  0.12266625  0.99533250  0.16170400  1
  O  O1549  1  0.12266625  0.99533250  0.41170400  1
  O  O1550  1  0.12266625  0.99533250  0.66170400  1
  O  O1551  1  0.12266625  0.99533250  0.91170400  1
  O  O1552  1  0.37266625  0.24533250  0.16170400  1
  O  O1553  1  0.37266625  0.24533250  0.41170400  1
  O  O1554  1  0.37266625  0.24533250  0.66170400  1
  O  O1555  1  0.37266625  0.24533250  0.91170400  1
  O  O1556  1  0.37266625  0.49533250  0.16170400  1
  O  O1557  1  0.37266625  0.49533250  0.41170400  1
  O  O1558  1  0.37266625  0.49533250  0.66170400  1
  O  O1559  1  0.37266625  0.49533250  0.91170400  1
  O  O1560  1  0.37266625  0.74533250  0.16170400  1
  O  O1561  1  0.37266625  0.74533250  0.41170400  1
  O  O1562  1  0.37266625  0.74533250  0.66170400  1
  O  O1563  1  0.37266625  0.74533250  0.91170400  1
  O  O1564  1  0.37266625  0.99533250  0.16170400  1
  O  O1565  1  0.37266625  0.99533250  0.41170400  1
  O  O1566  1  0.37266625  0.99533250  0.66170400  1
  O  O1567  1  0.37266625  0.99533250  0.91170400  1
  O  O1568  1  0.62266625  0.24533250  0.16170400  1
  O  O1569  1  0.62266625  0.24533250  0.41170400  1
  O  O1570  1  0.62266625  0.24533250  0.66170400  1
  O  O1571  1  0.62266625  0.24533250  0.91170400  1
  O  O1572  1  0.62266625  0.49533250  0.16170400  1
  O  O1573  1  0.62266625  0.49533250  0.41170400  1
  O  O1574  1  0.62266625  0.49533250  0.66170400  1
  O  O1575  1  0.62266625  0.49533250  0.91170400  1
  O  O1576  1  0.62266625  0.74533250  0.16170400  1
  O  O1577  1  0.62266625  0.74533250  0.41170400  1
  O  O1578  1  0.62266625  0.74533250  0.66170400  1
  O  O1579  1  0.62266625  0.74533250  0.91170400  1
  O  O1580  1  0.62266625  0.99533250  0.16170400  1
  O  O1581  1  0.62266625  0.99533250  0.41170400  1
  O  O1582  1  0.62266625  0.99533250  0.66170400  1
  O  O1583  1  0.62266625  0.99533250  0.91170400  1
  O  O1584  1  0.87266625  0.24533250  0.16170400  1
  O  O1585  1  0.87266625  0.24533250  0.41170400  1
  O  O1586  1  0.87266625  0.24533250  0.66170400  1
  O  O1587  1  0.87266625  0.24533250  0.91170400  1
  O  O1588  1  0.87266625  0.49533250  0.16170400  1
  O  O1589  1  0.87266625  0.49533250  0.41170400  1
  O  O1590  1  0.87266625  0.49533250  0.66170400  1
  O  O1591  1  0.87266625  0.49533250  0.91170400  1
  O  O1592  1  0.87266625  0.74533250  0.16170400  1
  O  O1593  1  0.87266625  0.74533250  0.41170400  1
  O  O1594  1  0.87266625  0.74533250  0.66170400  1
  O  O1595  1  0.87266625  0.74533250  0.91170400  1
  O  O1596  1  0.87266625  0.99533250  0.16170400  1
  O  O1597  1  0.87266625  0.99533250  0.41170400  1
  O  O1598  1  0.87266625  0.99533250  0.66170400  1
  O  O1599  1  0.87266625  0.99533250  0.91170400  1
  O  O1600  1  0.16158425  0.20579225  0.23570925  1
  O  O1601  1  0.16158425  0.20579225  0.48570925  1
  O  O1602  1  0.16158425  0.20579225  0.73570925  1
  O  O1603  1  0.16158425  0.20579225  0.98570925  1
  O  O1604  1  0.16158425  0.45579225  0.23570925  1
  O  O1605  1  0.16158425  0.45579225  0.48570925  1
  O  O1606  1  0.16158425  0.45579225  0.73570925  1
  O  O1607  1  0.16158425  0.45579225  0.98570925  1
  O  O1608  1  0.16158425  0.70579225  0.23570925  1
  O  O1609  1  0.16158425  0.70579225  0.48570925  1
  O  O1610  1  0.16158425  0.70579225  0.73570925  1
  O  O1611  1  0.16158425  0.70579225  0.98570925  1
  O  O1612  1  0.16158425  0.95579225  0.23570925  1
  O  O1613  1  0.16158425  0.95579225  0.48570925  1
  O  O1614  1  0.16158425  0.95579225  0.73570925  1
  O  O1615  1  0.16158425  0.95579225  0.98570925  1
  O  O1616  1  0.41158425  0.20579225  0.23570925  1
  O  O1617  1  0.41158425  0.20579225  0.48570925  1
  O  O1618  1  0.41158425  0.20579225  0.73570925  1
  O  O1619  1  0.41158425  0.20579225  0.98570925  1
  O  O1620  1  0.41158425  0.45579225  0.23570925  1
  O  O1621  1  0.41158425  0.45579225  0.48570925  1
  O  O1622  1  0.41158425  0.45579225  0.73570925  1
  O  O1623  1  0.41158425  0.45579225  0.98570925  1
  O  O1624  1  0.41158425  0.70579225  0.23570925  1
  O  O1625  1  0.41158425  0.70579225  0.48570925  1
  O  O1626  1  0.41158425  0.70579225  0.73570925  1
  O  O1627  1  0.41158425  0.70579225  0.98570925  1
  O  O1628  1  0.41158425  0.95579225  0.23570925  1
  O  O1629  1  0.41158425  0.95579225  0.48570925  1
  O  O1630  1  0.41158425  0.95579225  0.73570925  1
  O  O1631  1  0.41158425  0.95579225  0.98570925  1
  O  O1632  1  0.66158425  0.20579225  0.23570925  1
  O  O1633  1  0.66158425  0.20579225  0.48570925  1
  O  O1634  1  0.66158425  0.20579225  0.73570925  1
  O  O1635  1  0.66158425  0.20579225  0.98570925  1
  O  O1636  1  0.66158425  0.45579225  0.23570925  1
  O  O1637  1  0.66158425  0.45579225  0.48570925  1
  O  O1638  1  0.66158425  0.45579225  0.73570925  1
  O  O1639  1  0.66158425  0.45579225  0.98570925  1
  O  O1640  1  0.66158425  0.70579225  0.23570925  1
  O  O1641  1  0.66158425  0.70579225  0.48570925  1
  O  O1642  1  0.66158425  0.70579225  0.73570925  1
  O  O1643  1  0.66158425  0.70579225  0.98570925  1
  O  O1644  1  0.66158425  0.95579225  0.23570925  1
  O  O1645  1  0.66158425  0.95579225  0.48570925  1
  O  O1646  1  0.66158425  0.95579225  0.73570925  1
  O  O1647  1  0.66158425  0.95579225  0.98570925  1
  O  O1648  1  0.91158425  0.20579225  0.23570925  1
  O  O1649  1  0.91158425  0.20579225  0.48570925  1
  O  O1650  1  0.91158425  0.20579225  0.73570925  1
  O  O1651  1  0.91158425  0.20579225  0.98570925  1
  O  O1652  1  0.91158425  0.45579225  0.23570925  1
  O  O1653  1  0.91158425  0.45579225  0.48570925  1
  O  O1654  1  0.91158425  0.45579225  0.73570925  1
  O  O1655  1  0.91158425  0.45579225  0.98570925  1
  O  O1656  1  0.91158425  0.70579225  0.23570925  1
  O  O1657  1  0.91158425  0.70579225  0.48570925  1
  O  O1658  1  0.91158425  0.70579225  0.73570925  1
  O  O1659  1  0.91158425  0.70579225  0.98570925  1
  O  O1660  1  0.91158425  0.95579225  0.23570925  1
  O  O1661  1  0.91158425  0.95579225  0.48570925  1
  O  O1662  1  0.91158425  0.95579225  0.73570925  1
  O  O1663  1  0.91158425  0.95579225  0.98570925  1
  O  O1664  1  0.04434125  0.08868225  0.06466600  1
  O  O1665  1  0.04434125  0.08868225  0.31466600  1
  O  O1666  1  0.04434125  0.08868225  0.56466600  1
  O  O1667  1  0.04434125  0.08868225  0.81466600  1
  O  O1668  1  0.04434125  0.33868225  0.06466600  1
  O  O1669  1  0.04434125  0.33868225  0.31466600  1
  O  O1670  1  0.04434125  0.33868225  0.56466600  1
  O  O1671  1  0.04434125  0.33868225  0.81466600  1
  O  O1672  1  0.04434125  0.58868225  0.06466600  1
  O  O1673  1  0.04434125  0.58868225  0.31466600  1
  O  O1674  1  0.04434125  0.58868225  0.56466600  1
  O  O1675  1  0.04434125  0.58868225  0.81466600  1
  O  O1676  1  0.04434125  0.83868225  0.06466600  1
  O  O1677  1  0.04434125  0.83868225  0.31466600  1
  O  O1678  1  0.04434125  0.83868225  0.56466600  1
  O  O1679  1  0.04434125  0.83868225  0.81466600  1
  O  O1680  1  0.29434125  0.08868225  0.06466600  1
  O  O1681  1  0.29434125  0.08868225  0.31466600  1
  O  O1682  1  0.29434125  0.08868225  0.56466600  1
  O  O1683  1  0.29434125  0.08868225  0.81466600  1
  O  O1684  1  0.29434125  0.33868225  0.06466600  1
  O  O1685  1  0.29434125  0.33868225  0.31466600  1
  O  O1686  1  0.29434125  0.33868225  0.56466600  1
  O  O1687  1  0.29434125  0.33868225  0.81466600  1
  O  O1688  1  0.29434125  0.58868225  0.06466600  1
  O  O1689  1  0.29434125  0.58868225  0.31466600  1
  O  O1690  1  0.29434125  0.58868225  0.56466600  1
  O  O1691  1  0.29434125  0.58868225  0.81466600  1
  O  O1692  1  0.29434125  0.83868225  0.06466600  1
  O  O1693  1  0.29434125  0.83868225  0.31466600  1
  O  O1694  1  0.29434125  0.83868225  0.56466600  1
  O  O1695  1  0.29434125  0.83868225  0.81466600  1
  O  O1696  1  0.54434125  0.08868225  0.06466600  1
  O  O1697  1  0.54434125  0.08868225  0.31466600  1
  O  O1698  1  0.54434125  0.08868225  0.56466600  1
  O  O1699  1  0.54434125  0.08868225  0.81466600  1
  O  O1700  1  0.54434125  0.33868225  0.06466600  1
  O  O1701  1  0.54434125  0.33868225  0.31466600  1
  O  O1702  1  0.54434125  0.33868225  0.56466600  1
  O  O1703  1  0.54434125  0.33868225  0.81466600  1
  O  O1704  1  0.54434125  0.58868225  0.06466600  1
  O  O1705  1  0.54434125  0.58868225  0.31466600  1
  O  O1706  1  0.54434125  0.58868225  0.56466600  1
  O  O1707  1  0.54434125  0.58868225  0.81466600  1
  O  O1708  1  0.54434125  0.83868225  0.06466600  1
  O  O1709  1  0.54434125  0.83868225  0.31466600  1
  O  O1710  1  0.54434125  0.83868225  0.56466600  1
  O  O1711  1  0.54434125  0.83868225  0.81466600  1
  O  O1712  1  0.79434125  0.08868225  0.06466600  1
  O  O1713  1  0.79434125  0.08868225  0.31466600  1
  O  O1714  1  0.79434125  0.08868225  0.56466600  1
  O  O1715  1  0.79434125  0.08868225  0.81466600  1
  O  O1716  1  0.79434125  0.33868225  0.06466600  1
  O  O1717  1  0.79434125  0.33868225  0.31466600  1
  O  O1718  1  0.79434125  0.33868225  0.56466600  1
  O  O1719  1  0.79434125  0.33868225  0.81466600  1
  O  O1720  1  0.79434125  0.58868225  0.06466600  1
  O  O1721  1  0.79434125  0.58868225  0.31466600  1
  O  O1722  1  0.79434125  0.58868225  0.56466600  1
  O  O1723  1  0.79434125  0.58868225  0.81466600  1
  O  O1724  1  0.79434125  0.83868225  0.06466600  1
  O  O1725  1  0.79434125  0.83868225  0.31466600  1
  O  O1726  1  0.79434125  0.83868225  0.56466600  1
  O  O1727  1  0.79434125  0.83868225  0.81466600  1
  O  O1728  1  0.08868225  0.04434125  0.18966600  1
  O  O1729  1  0.08868225  0.04434125  0.43966600  1
  O  O1730  1  0.08868225  0.04434125  0.68966600  1
  O  O1731  1  0.08868225  0.04434125  0.93966600  1
  O  O1732  1  0.08868225  0.29434125  0.18966600  1
  O  O1733  1  0.08868225  0.29434125  0.43966600  1
  O  O1734  1  0.08868225  0.29434125  0.68966600  1
  O  O1735  1  0.08868225  0.29434125  0.93966600  1
  O  O1736  1  0.08868225  0.54434125  0.18966600  1
  O  O1737  1  0.08868225  0.54434125  0.43966600  1
  O  O1738  1  0.08868225  0.54434125  0.68966600  1
  O  O1739  1  0.08868225  0.54434125  0.93966600  1
  O  O1740  1  0.08868225  0.79434125  0.18966600  1
  O  O1741  1  0.08868225  0.79434125  0.43966600  1
  O  O1742  1  0.08868225  0.79434125  0.68966600  1
  O  O1743  1  0.08868225  0.79434125  0.93966600  1
  O  O1744  1  0.33868225  0.04434125  0.18966600  1
  O  O1745  1  0.33868225  0.04434125  0.43966600  1
  O  O1746  1  0.33868225  0.04434125  0.68966600  1
  O  O1747  1  0.33868225  0.04434125  0.93966600  1
  O  O1748  1  0.33868225  0.29434125  0.18966600  1
  O  O1749  1  0.33868225  0.29434125  0.43966600  1
  O  O1750  1  0.33868225  0.29434125  0.68966600  1
  O  O1751  1  0.33868225  0.29434125  0.93966600  1
  O  O1752  1  0.33868225  0.54434125  0.18966600  1
  O  O1753  1  0.33868225  0.54434125  0.43966600  1
  O  O1754  1  0.33868225  0.54434125  0.68966600  1
  O  O1755  1  0.33868225  0.54434125  0.93966600  1
  O  O1756  1  0.33868225  0.79434125  0.18966600  1
  O  O1757  1  0.33868225  0.79434125  0.43966600  1
  O  O1758  1  0.33868225  0.79434125  0.68966600  1
  O  O1759  1  0.33868225  0.79434125  0.93966600  1
  O  O1760  1  0.58868225  0.04434125  0.18966600  1
  O  O1761  1  0.58868225  0.04434125  0.43966600  1
  O  O1762  1  0.58868225  0.04434125  0.68966600  1
  O  O1763  1  0.58868225  0.04434125  0.93966600  1
  O  O1764  1  0.58868225  0.29434125  0.18966600  1
  O  O1765  1  0.58868225  0.29434125  0.43966600  1
  O  O1766  1  0.58868225  0.29434125  0.68966600  1
  O  O1767  1  0.58868225  0.29434125  0.93966600  1
  O  O1768  1  0.58868225  0.54434125  0.18966600  1
  O  O1769  1  0.58868225  0.54434125  0.43966600  1
  O  O1770  1  0.58868225  0.54434125  0.68966600  1
  O  O1771  1  0.58868225  0.54434125  0.93966600  1
  O  O1772  1  0.58868225  0.79434125  0.18966600  1
  O  O1773  1  0.58868225  0.79434125  0.43966600  1
  O  O1774  1  0.58868225  0.79434125  0.68966600  1
  O  O1775  1  0.58868225  0.79434125  0.93966600  1
  O  O1776  1  0.83868225  0.04434125  0.18966600  1
  O  O1777  1  0.83868225  0.04434125  0.43966600  1
  O  O1778  1  0.83868225  0.04434125  0.68966600  1
  O  O1779  1  0.83868225  0.04434125  0.93966600  1
  O  O1780  1  0.83868225  0.29434125  0.18966600  1
  O  O1781  1  0.83868225  0.29434125  0.43966600  1
  O  O1782  1  0.83868225  0.29434125  0.68966600  1
  O  O1783  1  0.83868225  0.29434125  0.93966600  1
  O  O1784  1  0.83868225  0.54434125  0.18966600  1
  O  O1785  1  0.83868225  0.54434125  0.43966600  1
  O  O1786  1  0.83868225  0.54434125  0.68966600  1
  O  O1787  1  0.83868225  0.54434125  0.93966600  1
  O  O1788  1  0.83868225  0.79434125  0.18966600  1
  O  O1789  1  0.83868225  0.79434125  0.43966600  1
  O  O1790  1  0.83868225  0.79434125  0.68966600  1
  O  O1791  1  0.83868225  0.79434125  0.93966600  1
  O  O1792  1  0.20565875  0.16131775  0.18966600  1
  O  O1793  1  0.20565875  0.16131775  0.43966600  1
  O  O1794  1  0.20565875  0.16131775  0.68966600  1
  O  O1795  1  0.20565875  0.16131775  0.93966600  1
  O  O1796  1  0.20565875  0.41131775  0.18966600  1
  O  O1797  1  0.20565875  0.41131775  0.43966600  1
  O  O1798  1  0.20565875  0.41131775  0.68966600  1
  O  O1799  1  0.20565875  0.41131775  0.93966600  1
  O  O1800  1  0.20565875  0.66131775  0.18966600  1
  O  O1801  1  0.20565875  0.66131775  0.43966600  1
  O  O1802  1  0.20565875  0.66131775  0.68966600  1
  O  O1803  1  0.20565875  0.66131775  0.93966600  1
  O  O1804  1  0.20565875  0.91131775  0.18966600  1
  O  O1805  1  0.20565875  0.91131775  0.43966600  1
  O  O1806  1  0.20565875  0.91131775  0.68966600  1
  O  O1807  1  0.20565875  0.91131775  0.93966600  1
  O  O1808  1  0.45565875  0.16131775  0.18966600  1
  O  O1809  1  0.45565875  0.16131775  0.43966600  1
  O  O1810  1  0.45565875  0.16131775  0.68966600  1
  O  O1811  1  0.45565875  0.16131775  0.93966600  1
  O  O1812  1  0.45565875  0.41131775  0.18966600  1
  O  O1813  1  0.45565875  0.41131775  0.43966600  1
  O  O1814  1  0.45565875  0.41131775  0.68966600  1
  O  O1815  1  0.45565875  0.41131775  0.93966600  1
  O  O1816  1  0.45565875  0.66131775  0.18966600  1
  O  O1817  1  0.45565875  0.66131775  0.43966600  1
  O  O1818  1  0.45565875  0.66131775  0.68966600  1
  O  O1819  1  0.45565875  0.66131775  0.93966600  1
  O  O1820  1  0.45565875  0.91131775  0.18966600  1
  O  O1821  1  0.45565875  0.91131775  0.43966600  1
  O  O1822  1  0.45565875  0.91131775  0.68966600  1
  O  O1823  1  0.45565875  0.91131775  0.93966600  1
  O  O1824  1  0.70565875  0.16131775  0.18966600  1
  O  O1825  1  0.70565875  0.16131775  0.43966600  1
  O  O1826  1  0.70565875  0.16131775  0.68966600  1
  O  O1827  1  0.70565875  0.16131775  0.93966600  1
  O  O1828  1  0.70565875  0.41131775  0.18966600  1
  O  O1829  1  0.70565875  0.41131775  0.43966600  1
  O  O1830  1  0.70565875  0.41131775  0.68966600  1
  O  O1831  1  0.70565875  0.41131775  0.93966600  1
  O  O1832  1  0.70565875  0.66131775  0.18966600  1
  O  O1833  1  0.70565875  0.66131775  0.43966600  1
  O  O1834  1  0.70565875  0.66131775  0.68966600  1
  O  O1835  1  0.70565875  0.66131775  0.93966600  1
  O  O1836  1  0.70565875  0.91131775  0.18966600  1
  O  O1837  1  0.70565875  0.91131775  0.43966600  1
  O  O1838  1  0.70565875  0.91131775  0.68966600  1
  O  O1839  1  0.70565875  0.91131775  0.93966600  1
  O  O1840  1  0.95565875  0.16131775  0.18966600  1
  O  O1841  1  0.95565875  0.16131775  0.43966600  1
  O  O1842  1  0.95565875  0.16131775  0.68966600  1
  O  O1843  1  0.95565875  0.16131775  0.93966600  1
  O  O1844  1  0.95565875  0.41131775  0.18966600  1
  O  O1845  1  0.95565875  0.41131775  0.43966600  1
  O  O1846  1  0.95565875  0.41131775  0.68966600  1
  O  O1847  1  0.95565875  0.41131775  0.93966600  1
  O  O1848  1  0.95565875  0.66131775  0.18966600  1
  O  O1849  1  0.95565875  0.66131775  0.43966600  1
  O  O1850  1  0.95565875  0.66131775  0.68966600  1
  O  O1851  1  0.95565875  0.66131775  0.93966600  1
  O  O1852  1  0.95565875  0.91131775  0.18966600  1
  O  O1853  1  0.95565875  0.91131775  0.43966600  1
  O  O1854  1  0.95565875  0.91131775  0.68966600  1
  O  O1855  1  0.95565875  0.91131775  0.93966600  1
  O  O1856  1  0.04434125  0.20565875  0.06466600  1
  O  O1857  1  0.04434125  0.20565875  0.31466600  1
  O  O1858  1  0.04434125  0.20565875  0.56466600  1
  O  O1859  1  0.04434125  0.20565875  0.81466600  1
  O  O1860  1  0.04434125  0.45565875  0.06466600  1
  O  O1861  1  0.04434125  0.45565875  0.31466600  1
  O  O1862  1  0.04434125  0.45565875  0.56466600  1
  O  O1863  1  0.04434125  0.45565875  0.81466600  1
  O  O1864  1  0.04434125  0.70565875  0.06466600  1
  O  O1865  1  0.04434125  0.70565875  0.31466600  1
  O  O1866  1  0.04434125  0.70565875  0.56466600  1
  O  O1867  1  0.04434125  0.70565875  0.81466600  1
  O  O1868  1  0.04434125  0.95565875  0.06466600  1
  O  O1869  1  0.04434125  0.95565875  0.31466600  1
  O  O1870  1  0.04434125  0.95565875  0.56466600  1
  O  O1871  1  0.04434125  0.95565875  0.81466600  1
  O  O1872  1  0.29434125  0.20565875  0.06466600  1
  O  O1873  1  0.29434125  0.20565875  0.31466600  1
  O  O1874  1  0.29434125  0.20565875  0.56466600  1
  O  O1875  1  0.29434125  0.20565875  0.81466600  1
  O  O1876  1  0.29434125  0.45565875  0.06466600  1
  O  O1877  1  0.29434125  0.45565875  0.31466600  1
  O  O1878  1  0.29434125  0.45565875  0.56466600  1
  O  O1879  1  0.29434125  0.45565875  0.81466600  1
  O  O1880  1  0.29434125  0.70565875  0.06466600  1
  O  O1881  1  0.29434125  0.70565875  0.31466600  1
  O  O1882  1  0.29434125  0.70565875  0.56466600  1
  O  O1883  1  0.29434125  0.70565875  0.81466600  1
  O  O1884  1  0.29434125  0.95565875  0.06466600  1
  O  O1885  1  0.29434125  0.95565875  0.31466600  1
  O  O1886  1  0.29434125  0.95565875  0.56466600  1
  O  O1887  1  0.29434125  0.95565875  0.81466600  1
  O  O1888  1  0.54434125  0.20565875  0.06466600  1
  O  O1889  1  0.54434125  0.20565875  0.31466600  1
  O  O1890  1  0.54434125  0.20565875  0.56466600  1
  O  O1891  1  0.54434125  0.20565875  0.81466600  1
  O  O1892  1  0.54434125  0.45565875  0.06466600  1
  O  O1893  1  0.54434125  0.45565875  0.31466600  1
  O  O1894  1  0.54434125  0.45565875  0.56466600  1
  O  O1895  1  0.54434125  0.45565875  0.81466600  1
  O  O1896  1  0.54434125  0.70565875  0.06466600  1
  O  O1897  1  0.54434125  0.70565875  0.31466600  1
  O  O1898  1  0.54434125  0.70565875  0.56466600  1
  O  O1899  1  0.54434125  0.70565875  0.81466600  1
  O  O1900  1  0.54434125  0.95565875  0.06466600  1
  O  O1901  1  0.54434125  0.95565875  0.31466600  1
  O  O1902  1  0.54434125  0.95565875  0.56466600  1
  O  O1903  1  0.54434125  0.95565875  0.81466600  1
  O  O1904  1  0.79434125  0.20565875  0.06466600  1
  O  O1905  1  0.79434125  0.20565875  0.31466600  1
  O  O1906  1  0.79434125  0.20565875  0.56466600  1
  O  O1907  1  0.79434125  0.20565875  0.81466600  1
  O  O1908  1  0.79434125  0.45565875  0.06466600  1
  O  O1909  1  0.79434125  0.45565875  0.31466600  1
  O  O1910  1  0.79434125  0.45565875  0.56466600  1
  O  O1911  1  0.79434125  0.45565875  0.81466600  1
  O  O1912  1  0.79434125  0.70565875  0.06466600  1
  O  O1913  1  0.79434125  0.70565875  0.31466600  1
  O  O1914  1  0.79434125  0.70565875  0.56466600  1
  O  O1915  1  0.79434125  0.70565875  0.81466600  1
  O  O1916  1  0.79434125  0.95565875  0.06466600  1
  O  O1917  1  0.79434125  0.95565875  0.31466600  1
  O  O1918  1  0.79434125  0.95565875  0.56466600  1
  O  O1919  1  0.79434125  0.95565875  0.81466600  1
  O  O1920  1  0.00008900  0.12504450  0.21272075  1
  O  O1921  1  0.00008900  0.12504450  0.46272075  1
  O  O1922  1  0.00008900  0.12504450  0.71272075  1
  O  O1923  1  0.00008900  0.12504450  0.96272075  1
  O  O1924  1  0.00008900  0.37504450  0.21272075  1
  O  O1925  1  0.00008900  0.37504450  0.46272075  1
  O  O1926  1  0.00008900  0.37504450  0.71272075  1
  O  O1927  1  0.00008900  0.37504450  0.96272075  1
  O  O1928  1  0.00008900  0.62504450  0.21272075  1
  O  O1929  1  0.00008900  0.62504450  0.46272075  1
  O  O1930  1  0.00008900  0.62504450  0.71272075  1
  O  O1931  1  0.00008900  0.62504450  0.96272075  1
  O  O1932  1  0.00008900  0.87504450  0.21272075  1
  O  O1933  1  0.00008900  0.87504450  0.46272075  1
  O  O1934  1  0.00008900  0.87504450  0.71272075  1
  O  O1935  1  0.00008900  0.87504450  0.96272075  1
  O  O1936  1  0.25008900  0.12504450  0.21272075  1
  O  O1937  1  0.25008900  0.12504450  0.46272075  1
  O  O1938  1  0.25008900  0.12504450  0.71272075  1
  O  O1939  1  0.25008900  0.12504450  0.96272075  1
  O  O1940  1  0.25008900  0.37504450  0.21272075  1
  O  O1941  1  0.25008900  0.37504450  0.46272075  1
  O  O1942  1  0.25008900  0.37504450  0.71272075  1
  O  O1943  1  0.25008900  0.37504450  0.96272075  1
  O  O1944  1  0.25008900  0.62504450  0.21272075  1
  O  O1945  1  0.25008900  0.62504450  0.46272075  1
  O  O1946  1  0.25008900  0.62504450  0.71272075  1
  O  O1947  1  0.25008900  0.62504450  0.96272075  1
  O  O1948  1  0.25008900  0.87504450  0.21272075  1
  O  O1949  1  0.25008900  0.87504450  0.46272075  1
  O  O1950  1  0.25008900  0.87504450  0.71272075  1
  O  O1951  1  0.25008900  0.87504450  0.96272075  1
  O  O1952  1  0.50008900  0.12504450  0.21272075  1
  O  O1953  1  0.50008900  0.12504450  0.46272075  1
  O  O1954  1  0.50008900  0.12504450  0.71272075  1
  O  O1955  1  0.50008900  0.12504450  0.96272075  1
  O  O1956  1  0.50008900  0.37504450  0.21272075  1
  O  O1957  1  0.50008900  0.37504450  0.46272075  1
  O  O1958  1  0.50008900  0.37504450  0.71272075  1
  O  O1959  1  0.50008900  0.37504450  0.96272075  1
  O  O1960  1  0.50008900  0.62504450  0.21272075  1
  O  O1961  1  0.50008900  0.62504450  0.46272075  1
  O  O1962  1  0.50008900  0.62504450  0.71272075  1
  O  O1963  1  0.50008900  0.62504450  0.96272075  1
  O  O1964  1  0.50008900  0.87504450  0.21272075  1
  O  O1965  1  0.50008900  0.87504450  0.46272075  1
  O  O1966  1  0.50008900  0.87504450  0.71272075  1
  O  O1967  1  0.50008900  0.87504450  0.96272075  1
  O  O1968  1  0.75008900  0.12504450  0.21272075  1
  O  O1969  1  0.75008900  0.12504450  0.46272075  1
  O  O1970  1  0.75008900  0.12504450  0.71272075  1
  O  O1971  1  0.75008900  0.12504450  0.96272075  1
  O  O1972  1  0.75008900  0.37504450  0.21272075  1
  O  O1973  1  0.75008900  0.37504450  0.46272075  1
  O  O1974  1  0.75008900  0.37504450  0.71272075  1
  O  O1975  1  0.75008900  0.37504450  0.96272075  1
  O  O1976  1  0.75008900  0.62504450  0.21272075  1
  O  O1977  1  0.75008900  0.62504450  0.46272075  1
  O  O1978  1  0.75008900  0.62504450  0.71272075  1
  O  O1979  1  0.75008900  0.62504450  0.96272075  1
  O  O1980  1  0.75008900  0.87504450  0.21272075  1
  O  O1981  1  0.75008900  0.87504450  0.46272075  1
  O  O1982  1  0.75008900  0.87504450  0.71272075  1
  O  O1983  1  0.75008900  0.87504450  0.96272075  1
  O  O1984  1  0.20579225  0.04420775  0.11070925  1
  O  O1985  1  0.20579225  0.04420775  0.36070925  1
  O  O1986  1  0.20579225  0.04420775  0.61070925  1
  O  O1987  1  0.20579225  0.04420775  0.86070925  1
  O  O1988  1  0.20579225  0.29420775  0.11070925  1
  O  O1989  1  0.20579225  0.29420775  0.36070925  1
  O  O1990  1  0.20579225  0.29420775  0.61070925  1
  O  O1991  1  0.20579225  0.29420775  0.86070925  1
  O  O1992  1  0.20579225  0.54420775  0.11070925  1
  O  O1993  1  0.20579225  0.54420775  0.36070925  1
  O  O1994  1  0.20579225  0.54420775  0.61070925  1
  O  O1995  1  0.20579225  0.54420775  0.86070925  1
  O  O1996  1  0.20579225  0.79420775  0.11070925  1
  O  O1997  1  0.20579225  0.79420775  0.36070925  1
  O  O1998  1  0.20579225  0.79420775  0.61070925  1
  O  O1999  1  0.20579225  0.79420775  0.86070925  1
  O  O2000  1  0.45579225  0.04420775  0.11070925  1
  O  O2001  1  0.45579225  0.04420775  0.36070925  1
  O  O2002  1  0.45579225  0.04420775  0.61070925  1
  O  O2003  1  0.45579225  0.04420775  0.86070925  1
  O  O2004  1  0.45579225  0.29420775  0.11070925  1
  O  O2005  1  0.45579225  0.29420775  0.36070925  1
  O  O2006  1  0.45579225  0.29420775  0.61070925  1
  O  O2007  1  0.45579225  0.29420775  0.86070925  1
  O  O2008  1  0.45579225  0.54420775  0.11070925  1
  O  O2009  1  0.45579225  0.54420775  0.36070925  1
  O  O2010  1  0.45579225  0.54420775  0.61070925  1
  O  O2011  1  0.45579225  0.54420775  0.86070925  1
  O  O2012  1  0.45579225  0.79420775  0.11070925  1
  O  O2013  1  0.45579225  0.79420775  0.36070925  1
  O  O2014  1  0.45579225  0.79420775  0.61070925  1
  O  O2015  1  0.45579225  0.79420775  0.86070925  1
  O  O2016  1  0.70579225  0.04420775  0.11070925  1
  O  O2017  1  0.70579225  0.04420775  0.36070925  1
  O  O2018  1  0.70579225  0.04420775  0.61070925  1
  O  O2019  1  0.70579225  0.04420775  0.86070925  1
  O  O2020  1  0.70579225  0.29420775  0.11070925  1
  O  O2021  1  0.70579225  0.29420775  0.36070925  1
  O  O2022  1  0.70579225  0.29420775  0.61070925  1
  O  O2023  1  0.70579225  0.29420775  0.86070925  1
  O  O2024  1  0.70579225  0.54420775  0.11070925  1
  O  O2025  1  0.70579225  0.54420775  0.36070925  1
  O  O2026  1  0.70579225  0.54420775  0.61070925  1
  O  O2027  1  0.70579225  0.54420775  0.86070925  1
  O  O2028  1  0.70579225  0.79420775  0.11070925  1
  O  O2029  1  0.70579225  0.79420775  0.36070925  1
  O  O2030  1  0.70579225  0.79420775  0.61070925  1
  O  O2031  1  0.70579225  0.79420775  0.86070925  1
  O  O2032  1  0.95579225  0.04420775  0.11070925  1
  O  O2033  1  0.95579225  0.04420775  0.36070925  1
  O  O2034  1  0.95579225  0.04420775  0.61070925  1
  O  O2035  1  0.95579225  0.04420775  0.86070925  1
  O  O2036  1  0.95579225  0.29420775  0.11070925  1
  O  O2037  1  0.95579225  0.29420775  0.36070925  1
  O  O2038  1  0.95579225  0.29420775  0.61070925  1
  O  O2039  1  0.95579225  0.29420775  0.86070925  1
  O  O2040  1  0.95579225  0.54420775  0.11070925  1
  O  O2041  1  0.95579225  0.54420775  0.36070925  1
  O  O2042  1  0.95579225  0.54420775  0.61070925  1
  O  O2043  1  0.95579225  0.54420775  0.86070925  1
  O  O2044  1  0.95579225  0.79420775  0.11070925  1
  O  O2045  1  0.95579225  0.79420775  0.36070925  1
  O  O2046  1  0.95579225  0.79420775  0.61070925  1
  O  O2047  1  0.95579225  0.79420775  0.86070925  1
  O  O2048  1  0.08841575  0.04420775  0.11070925  1
  O  O2049  1  0.08841575  0.04420775  0.36070925  1
  O  O2050  1  0.08841575  0.04420775  0.61070925  1
  O  O2051  1  0.08841575  0.04420775  0.86070925  1
  O  O2052  1  0.08841575  0.29420775  0.11070925  1
  O  O2053  1  0.08841575  0.29420775  0.36070925  1
  O  O2054  1  0.08841575  0.29420775  0.61070925  1
  O  O2055  1  0.08841575  0.29420775  0.86070925  1
  O  O2056  1  0.08841575  0.54420775  0.11070925  1
  O  O2057  1  0.08841575  0.54420775  0.36070925  1
  O  O2058  1  0.08841575  0.54420775  0.61070925  1
  O  O2059  1  0.08841575  0.54420775  0.86070925  1
  O  O2060  1  0.08841575  0.79420775  0.11070925  1
  O  O2061  1  0.08841575  0.79420775  0.36070925  1
  O  O2062  1  0.08841575  0.79420775  0.61070925  1
  O  O2063  1  0.08841575  0.79420775  0.86070925  1
  O  O2064  1  0.33841575  0.04420775  0.11070925  1
  O  O2065  1  0.33841575  0.04420775  0.36070925  1
  O  O2066  1  0.33841575  0.04420775  0.61070925  1
  O  O2067  1  0.33841575  0.04420775  0.86070925  1
  O  O2068  1  0.33841575  0.29420775  0.11070925  1
  O  O2069  1  0.33841575  0.29420775  0.36070925  1
  O  O2070  1  0.33841575  0.29420775  0.61070925  1
  O  O2071  1  0.33841575  0.29420775  0.86070925  1
  O  O2072  1  0.33841575  0.54420775  0.11070925  1
  O  O2073  1  0.33841575  0.54420775  0.36070925  1
  O  O2074  1  0.33841575  0.54420775  0.61070925  1
  O  O2075  1  0.33841575  0.54420775  0.86070925  1
  O  O2076  1  0.33841575  0.79420775  0.11070925  1
  O  O2077  1  0.33841575  0.79420775  0.36070925  1
  O  O2078  1  0.33841575  0.79420775  0.61070925  1
  O  O2079  1  0.33841575  0.79420775  0.86070925  1
  O  O2080  1  0.58841575  0.04420775  0.11070925  1
  O  O2081  1  0.58841575  0.04420775  0.36070925  1
  O  O2082  1  0.58841575  0.04420775  0.61070925  1
  O  O2083  1  0.58841575  0.04420775  0.86070925  1
  O  O2084  1  0.58841575  0.29420775  0.11070925  1
  O  O2085  1  0.58841575  0.29420775  0.36070925  1
  O  O2086  1  0.58841575  0.29420775  0.61070925  1
  O  O2087  1  0.58841575  0.29420775  0.86070925  1
  O  O2088  1  0.58841575  0.54420775  0.11070925  1
  O  O2089  1  0.58841575  0.54420775  0.36070925  1
  O  O2090  1  0.58841575  0.54420775  0.61070925  1
  O  O2091  1  0.58841575  0.54420775  0.86070925  1
  O  O2092  1  0.58841575  0.79420775  0.11070925  1
  O  O2093  1  0.58841575  0.79420775  0.36070925  1
  O  O2094  1  0.58841575  0.79420775  0.61070925  1
  O  O2095  1  0.58841575  0.79420775  0.86070925  1
  O  O2096  1  0.83841575  0.04420775  0.11070925  1
  O  O2097  1  0.83841575  0.04420775  0.36070925  1
  O  O2098  1  0.83841575  0.04420775  0.61070925  1
  O  O2099  1  0.83841575  0.04420775  0.86070925  1
  O  O2100  1  0.83841575  0.29420775  0.11070925  1
  O  O2101  1  0.83841575  0.29420775  0.36070925  1
  O  O2102  1  0.83841575  0.29420775  0.61070925  1
  O  O2103  1  0.83841575  0.29420775  0.86070925  1
  O  O2104  1  0.83841575  0.54420775  0.11070925  1
  O  O2105  1  0.83841575  0.54420775  0.36070925  1
  O  O2106  1  0.83841575  0.54420775  0.61070925  1
  O  O2107  1  0.83841575  0.54420775  0.86070925  1
  O  O2108  1  0.83841575  0.79420775  0.11070925  1
  O  O2109  1  0.83841575  0.79420775  0.36070925  1
  O  O2110  1  0.83841575  0.79420775  0.61070925  1
  O  O2111  1  0.83841575  0.79420775  0.86070925  1
  O  O2112  1  0.12504450  0.12495550  0.08772075  1
  O  O2113  1  0.12504450  0.12495550  0.33772075  1
  O  O2114  1  0.12504450  0.12495550  0.58772075  1
  O  O2115  1  0.12504450  0.12495550  0.83772075  1
  O  O2116  1  0.12504450  0.37495550  0.08772075  1
  O  O2117  1  0.12504450  0.37495550  0.33772075  1
  O  O2118  1  0.12504450  0.37495550  0.58772075  1
  O  O2119  1  0.12504450  0.37495550  0.83772075  1
  O  O2120  1  0.12504450  0.62495550  0.08772075  1
  O  O2121  1  0.12504450  0.62495550  0.33772075  1
  O  O2122  1  0.12504450  0.62495550  0.58772075  1
  O  O2123  1  0.12504450  0.62495550  0.83772075  1
  O  O2124  1  0.12504450  0.87495550  0.08772075  1
  O  O2125  1  0.12504450  0.87495550  0.33772075  1
  O  O2126  1  0.12504450  0.87495550  0.58772075  1
  O  O2127  1  0.12504450  0.87495550  0.83772075  1
  O  O2128  1  0.37504450  0.12495550  0.08772075  1
  O  O2129  1  0.37504450  0.12495550  0.33772075  1
  O  O2130  1  0.37504450  0.12495550  0.58772075  1
  O  O2131  1  0.37504450  0.12495550  0.83772075  1
  O  O2132  1  0.37504450  0.37495550  0.08772075  1
  O  O2133  1  0.37504450  0.37495550  0.33772075  1
  O  O2134  1  0.37504450  0.37495550  0.58772075  1
  O  O2135  1  0.37504450  0.37495550  0.83772075  1
  O  O2136  1  0.37504450  0.62495550  0.08772075  1
  O  O2137  1  0.37504450  0.62495550  0.33772075  1
  O  O2138  1  0.37504450  0.62495550  0.58772075  1
  O  O2139  1  0.37504450  0.62495550  0.83772075  1
  O  O2140  1  0.37504450  0.87495550  0.08772075  1
  O  O2141  1  0.37504450  0.87495550  0.33772075  1
  O  O2142  1  0.37504450  0.87495550  0.58772075  1
  O  O2143  1  0.37504450  0.87495550  0.83772075  1
  O  O2144  1  0.62504450  0.12495550  0.08772075  1
  O  O2145  1  0.62504450  0.12495550  0.33772075  1
  O  O2146  1  0.62504450  0.12495550  0.58772075  1
  O  O2147  1  0.62504450  0.12495550  0.83772075  1
  O  O2148  1  0.62504450  0.37495550  0.08772075  1
  O  O2149  1  0.62504450  0.37495550  0.33772075  1
  O  O2150  1  0.62504450  0.37495550  0.58772075  1
  O  O2151  1  0.62504450  0.37495550  0.83772075  1
  O  O2152  1  0.62504450  0.62495550  0.08772075  1
  O  O2153  1  0.62504450  0.62495550  0.33772075  1
  O  O2154  1  0.62504450  0.62495550  0.58772075  1
  O  O2155  1  0.62504450  0.62495550  0.83772075  1
  O  O2156  1  0.62504450  0.87495550  0.08772075  1
  O  O2157  1  0.62504450  0.87495550  0.33772075  1
  O  O2158  1  0.62504450  0.87495550  0.58772075  1
  O  O2159  1  0.62504450  0.87495550  0.83772075  1
  O  O2160  1  0.87504450  0.12495550  0.08772075  1
  O  O2161  1  0.87504450  0.12495550  0.33772075  1
  O  O2162  1  0.87504450  0.12495550  0.58772075  1
  O  O2163  1  0.87504450  0.12495550  0.83772075  1
  O  O2164  1  0.87504450  0.37495550  0.08772075  1
  O  O2165  1  0.87504450  0.37495550  0.33772075  1
  O  O2166  1  0.87504450  0.37495550  0.58772075  1
  O  O2167  1  0.87504450  0.37495550  0.83772075  1
  O  O2168  1  0.87504450  0.62495550  0.08772075  1
  O  O2169  1  0.87504450  0.62495550  0.33772075  1
  O  O2170  1  0.87504450  0.62495550  0.58772075  1
  O  O2171  1  0.87504450  0.62495550  0.83772075  1
  O  O2172  1  0.87504450  0.87495550  0.08772075  1
  O  O2173  1  0.87504450  0.87495550  0.33772075  1
  O  O2174  1  0.87504450  0.87495550  0.58772075  1
  O  O2175  1  0.87504450  0.87495550  0.83772075  1
  O  O2176  1  0.24991100  0.12495550  0.08772075  1
  O  O2177  1  0.24991100  0.12495550  0.33772075  1
  O  O2178  1  0.24991100  0.12495550  0.58772075  1
  O  O2179  1  0.24991100  0.12495550  0.83772075  1
  O  O2180  1  0.24991100  0.37495550  0.08772075  1
  O  O2181  1  0.24991100  0.37495550  0.33772075  1
  O  O2182  1  0.24991100  0.37495550  0.58772075  1
  O  O2183  1  0.24991100  0.37495550  0.83772075  1
  O  O2184  1  0.24991100  0.62495550  0.08772075  1
  O  O2185  1  0.24991100  0.62495550  0.33772075  1
  O  O2186  1  0.24991100  0.62495550  0.58772075  1
  O  O2187  1  0.24991100  0.62495550  0.83772075  1
  O  O2188  1  0.24991100  0.87495550  0.08772075  1
  O  O2189  1  0.24991100  0.87495550  0.33772075  1
  O  O2190  1  0.24991100  0.87495550  0.58772075  1
  O  O2191  1  0.24991100  0.87495550  0.83772075  1
  O  O2192  1  0.49991100  0.12495550  0.08772075  1
  O  O2193  1  0.49991100  0.12495550  0.33772075  1
  O  O2194  1  0.49991100  0.12495550  0.58772075  1
  O  O2195  1  0.49991100  0.12495550  0.83772075  1
  O  O2196  1  0.49991100  0.37495550  0.08772075  1
  O  O2197  1  0.49991100  0.37495550  0.33772075  1
  O  O2198  1  0.49991100  0.37495550  0.58772075  1
  O  O2199  1  0.49991100  0.37495550  0.83772075  1
  O  O2200  1  0.49991100  0.62495550  0.08772075  1
  O  O2201  1  0.49991100  0.62495550  0.33772075  1
  O  O2202  1  0.49991100  0.62495550  0.58772075  1
  O  O2203  1  0.49991100  0.62495550  0.83772075  1
  O  O2204  1  0.49991100  0.87495550  0.08772075  1
  O  O2205  1  0.49991100  0.87495550  0.33772075  1
  O  O2206  1  0.49991100  0.87495550  0.58772075  1
  O  O2207  1  0.49991100  0.87495550  0.83772075  1
  O  O2208  1  0.74991100  0.12495550  0.08772075  1
  O  O2209  1  0.74991100  0.12495550  0.33772075  1
  O  O2210  1  0.74991100  0.12495550  0.58772075  1
  O  O2211  1  0.74991100  0.12495550  0.83772075  1
  O  O2212  1  0.74991100  0.37495550  0.08772075  1
  O  O2213  1  0.74991100  0.37495550  0.33772075  1
  O  O2214  1  0.74991100  0.37495550  0.58772075  1
  O  O2215  1  0.74991100  0.37495550  0.83772075  1
  O  O2216  1  0.74991100  0.62495550  0.08772075  1
  O  O2217  1  0.74991100  0.62495550  0.33772075  1
  O  O2218  1  0.74991100  0.62495550  0.58772075  1
  O  O2219  1  0.74991100  0.62495550  0.83772075  1
  O  O2220  1  0.74991100  0.87495550  0.08772075  1
  O  O2221  1  0.74991100  0.87495550  0.33772075  1
  O  O2222  1  0.74991100  0.87495550  0.58772075  1
  O  O2223  1  0.74991100  0.87495550  0.83772075  1
  O  O2224  1  0.99991100  0.12495550  0.08772075  1
  O  O2225  1  0.99991100  0.12495550  0.33772075  1
  O  O2226  1  0.99991100  0.12495550  0.58772075  1
  O  O2227  1  0.99991100  0.12495550  0.83772075  1
  O  O2228  1  0.99991100  0.37495550  0.08772075  1
  O  O2229  1  0.99991100  0.37495550  0.33772075  1
  O  O2230  1  0.99991100  0.37495550  0.58772075  1
  O  O2231  1  0.99991100  0.37495550  0.83772075  1
  O  O2232  1  0.99991100  0.62495550  0.08772075  1
  O  O2233  1  0.99991100  0.62495550  0.33772075  1
  O  O2234  1  0.99991100  0.62495550  0.58772075  1
  O  O2235  1  0.99991100  0.62495550  0.83772075  1
  O  O2236  1  0.99991100  0.87495550  0.08772075  1
  O  O2237  1  0.99991100  0.87495550  0.33772075  1
  O  O2238  1  0.99991100  0.87495550  0.58772075  1
  O  O2239  1  0.99991100  0.87495550  0.83772075  1
  O  O2240  1  0.12495550  0.12504450  0.21272075  1
  O  O2241  1  0.12495550  0.12504450  0.46272075  1
  O  O2242  1  0.12495550  0.12504450  0.71272075  1
  O  O2243  1  0.12495550  0.12504450  0.96272075  1
  O  O2244  1  0.12495550  0.37504450  0.21272075  1
  O  O2245  1  0.12495550  0.37504450  0.46272075  1
  O  O2246  1  0.12495550  0.37504450  0.71272075  1
  O  O2247  1  0.12495550  0.37504450  0.96272075  1
  O  O2248  1  0.12495550  0.62504450  0.21272075  1
  O  O2249  1  0.12495550  0.62504450  0.46272075  1
  O  O2250  1  0.12495550  0.62504450  0.71272075  1
  O  O2251  1  0.12495550  0.62504450  0.96272075  1
  O  O2252  1  0.12495550  0.87504450  0.21272075  1
  O  O2253  1  0.12495550  0.87504450  0.46272075  1
  O  O2254  1  0.12495550  0.87504450  0.71272075  1
  O  O2255  1  0.12495550  0.87504450  0.96272075  1
  O  O2256  1  0.37495550  0.12504450  0.21272075  1
  O  O2257  1  0.37495550  0.12504450  0.46272075  1
  O  O2258  1  0.37495550  0.12504450  0.71272075  1
  O  O2259  1  0.37495550  0.12504450  0.96272075  1
  O  O2260  1  0.37495550  0.37504450  0.21272075  1
  O  O2261  1  0.37495550  0.37504450  0.46272075  1
  O  O2262  1  0.37495550  0.37504450  0.71272075  1
  O  O2263  1  0.37495550  0.37504450  0.96272075  1
  O  O2264  1  0.37495550  0.62504450  0.21272075  1
  O  O2265  1  0.37495550  0.62504450  0.46272075  1
  O  O2266  1  0.37495550  0.62504450  0.71272075  1
  O  O2267  1  0.37495550  0.62504450  0.96272075  1
  O  O2268  1  0.37495550  0.87504450  0.21272075  1
  O  O2269  1  0.37495550  0.87504450  0.46272075  1
  O  O2270  1  0.37495550  0.87504450  0.71272075  1
  O  O2271  1  0.37495550  0.87504450  0.96272075  1
  O  O2272  1  0.62495550  0.12504450  0.21272075  1
  O  O2273  1  0.62495550  0.12504450  0.46272075  1
  O  O2274  1  0.62495550  0.12504450  0.71272075  1
  O  O2275  1  0.62495550  0.12504450  0.96272075  1
  O  O2276  1  0.62495550  0.37504450  0.21272075  1
  O  O2277  1  0.62495550  0.37504450  0.46272075  1
  O  O2278  1  0.62495550  0.37504450  0.71272075  1
  O  O2279  1  0.62495550  0.37504450  0.96272075  1
  O  O2280  1  0.62495550  0.62504450  0.21272075  1
  O  O2281  1  0.62495550  0.62504450  0.46272075  1
  O  O2282  1  0.62495550  0.62504450  0.71272075  1
  O  O2283  1  0.62495550  0.62504450  0.96272075  1
  O  O2284  1  0.62495550  0.87504450  0.21272075  1
  O  O2285  1  0.62495550  0.87504450  0.46272075  1
  O  O2286  1  0.62495550  0.87504450  0.71272075  1
  O  O2287  1  0.62495550  0.87504450  0.96272075  1
  O  O2288  1  0.87495550  0.12504450  0.21272075  1
  O  O2289  1  0.87495550  0.12504450  0.46272075  1
  O  O2290  1  0.87495550  0.12504450  0.71272075  1
  O  O2291  1  0.87495550  0.12504450  0.96272075  1
  O  O2292  1  0.87495550  0.37504450  0.21272075  1
  O  O2293  1  0.87495550  0.37504450  0.46272075  1
  O  O2294  1  0.87495550  0.37504450  0.71272075  1
  O  O2295  1  0.87495550  0.37504450  0.96272075  1
  O  O2296  1  0.87495550  0.62504450  0.21272075  1
  O  O2297  1  0.87495550  0.62504450  0.46272075  1
  O  O2298  1  0.87495550  0.62504450  0.71272075  1
  O  O2299  1  0.87495550  0.62504450  0.96272075  1
  O  O2300  1  0.87495550  0.87504450  0.21272075  1
  O  O2301  1  0.87495550  0.87504450  0.46272075  1
  O  O2302  1  0.87495550  0.87504450  0.71272075  1
  O  O2303  1  0.87495550  0.87504450  0.96272075  1
  O  O2304  1  0.04420775  0.08841575  0.23570925  1
  O  O2305  1  0.04420775  0.08841575  0.48570925  1
  O  O2306  1  0.04420775  0.08841575  0.73570925  1
  O  O2307  1  0.04420775  0.08841575  0.98570925  1
  O  O2308  1  0.04420775  0.33841575  0.23570925  1
  O  O2309  1  0.04420775  0.33841575  0.48570925  1
  O  O2310  1  0.04420775  0.33841575  0.73570925  1
  O  O2311  1  0.04420775  0.33841575  0.98570925  1
  O  O2312  1  0.04420775  0.58841575  0.23570925  1
  O  O2313  1  0.04420775  0.58841575  0.48570925  1
  O  O2314  1  0.04420775  0.58841575  0.73570925  1
  O  O2315  1  0.04420775  0.58841575  0.98570925  1
  O  O2316  1  0.04420775  0.83841575  0.23570925  1
  O  O2317  1  0.04420775  0.83841575  0.48570925  1
  O  O2318  1  0.04420775  0.83841575  0.73570925  1
  O  O2319  1  0.04420775  0.83841575  0.98570925  1
  O  O2320  1  0.29420775  0.08841575  0.23570925  1
  O  O2321  1  0.29420775  0.08841575  0.48570925  1
  O  O2322  1  0.29420775  0.08841575  0.73570925  1
  O  O2323  1  0.29420775  0.08841575  0.98570925  1
  O  O2324  1  0.29420775  0.33841575  0.23570925  1
  O  O2325  1  0.29420775  0.33841575  0.48570925  1
  O  O2326  1  0.29420775  0.33841575  0.73570925  1
  O  O2327  1  0.29420775  0.33841575  0.98570925  1
  O  O2328  1  0.29420775  0.58841575  0.23570925  1
  O  O2329  1  0.29420775  0.58841575  0.48570925  1
  O  O2330  1  0.29420775  0.58841575  0.73570925  1
  O  O2331  1  0.29420775  0.58841575  0.98570925  1
  O  O2332  1  0.29420775  0.83841575  0.23570925  1
  O  O2333  1  0.29420775  0.83841575  0.48570925  1
  O  O2334  1  0.29420775  0.83841575  0.73570925  1
  O  O2335  1  0.29420775  0.83841575  0.98570925  1
  O  O2336  1  0.54420775  0.08841575  0.23570925  1
  O  O2337  1  0.54420775  0.08841575  0.48570925  1
  O  O2338  1  0.54420775  0.08841575  0.73570925  1
  O  O2339  1  0.54420775  0.08841575  0.98570925  1
  O  O2340  1  0.54420775  0.33841575  0.23570925  1
  O  O2341  1  0.54420775  0.33841575  0.48570925  1
  O  O2342  1  0.54420775  0.33841575  0.73570925  1
  O  O2343  1  0.54420775  0.33841575  0.98570925  1
  O  O2344  1  0.54420775  0.58841575  0.23570925  1
  O  O2345  1  0.54420775  0.58841575  0.48570925  1
  O  O2346  1  0.54420775  0.58841575  0.73570925  1
  O  O2347  1  0.54420775  0.58841575  0.98570925  1
  O  O2348  1  0.54420775  0.83841575  0.23570925  1
  O  O2349  1  0.54420775  0.83841575  0.48570925  1
  O  O2350  1  0.54420775  0.83841575  0.73570925  1
  O  O2351  1  0.54420775  0.83841575  0.98570925  1
  O  O2352  1  0.79420775  0.08841575  0.23570925  1
  O  O2353  1  0.79420775  0.08841575  0.48570925  1
  O  O2354  1  0.79420775  0.08841575  0.73570925  1
  O  O2355  1  0.79420775  0.08841575  0.98570925  1
  O  O2356  1  0.79420775  0.33841575  0.23570925  1
  O  O2357  1  0.79420775  0.33841575  0.48570925  1
  O  O2358  1  0.79420775  0.33841575  0.73570925  1
  O  O2359  1  0.79420775  0.33841575  0.98570925  1
  O  O2360  1  0.79420775  0.58841575  0.23570925  1
  O  O2361  1  0.79420775  0.58841575  0.48570925  1
  O  O2362  1  0.79420775  0.58841575  0.73570925  1
  O  O2363  1  0.79420775  0.58841575  0.98570925  1
  O  O2364  1  0.79420775  0.83841575  0.23570925  1
  O  O2365  1  0.79420775  0.83841575  0.48570925  1
  O  O2366  1  0.79420775  0.83841575  0.73570925  1
  O  O2367  1  0.79420775  0.83841575  0.98570925  1
  O  O2368  1  0.00466750  0.12733375  0.16170400  1
  O  O2369  1  0.00466750  0.12733375  0.41170400  1
  O  O2370  1  0.00466750  0.12733375  0.66170400  1
  O  O2371  1  0.00466750  0.12733375  0.91170400  1
  O  O2372  1  0.00466750  0.37733375  0.16170400  1
  O  O2373  1  0.00466750  0.37733375  0.41170400  1
  O  O2374  1  0.00466750  0.37733375  0.66170400  1
  O  O2375  1  0.00466750  0.37733375  0.91170400  1
  O  O2376  1  0.00466750  0.62733375  0.16170400  1
  O  O2377  1  0.00466750  0.62733375  0.41170400  1
  O  O2378  1  0.00466750  0.62733375  0.66170400  1
  O  O2379  1  0.00466750  0.62733375  0.91170400  1
  O  O2380  1  0.00466750  0.87733375  0.16170400  1
  O  O2381  1  0.00466750  0.87733375  0.41170400  1
  O  O2382  1  0.00466750  0.87733375  0.66170400  1
  O  O2383  1  0.00466750  0.87733375  0.91170400  1
  O  O2384  1  0.25466750  0.12733375  0.16170400  1
  O  O2385  1  0.25466750  0.12733375  0.41170400  1
  O  O2386  1  0.25466750  0.12733375  0.66170400  1
  O  O2387  1  0.25466750  0.12733375  0.91170400  1
  O  O2388  1  0.25466750  0.37733375  0.16170400  1
  O  O2389  1  0.25466750  0.37733375  0.41170400  1
  O  O2390  1  0.25466750  0.37733375  0.66170400  1
  O  O2391  1  0.25466750  0.37733375  0.91170400  1
  O  O2392  1  0.25466750  0.62733375  0.16170400  1
  O  O2393  1  0.25466750  0.62733375  0.41170400  1
  O  O2394  1  0.25466750  0.62733375  0.66170400  1
  O  O2395  1  0.25466750  0.62733375  0.91170400  1
  O  O2396  1  0.25466750  0.87733375  0.16170400  1
  O  O2397  1  0.25466750  0.87733375  0.41170400  1
  O  O2398  1  0.25466750  0.87733375  0.66170400  1
  O  O2399  1  0.25466750  0.87733375  0.91170400  1
  O  O2400  1  0.50466750  0.12733375  0.16170400  1
  O  O2401  1  0.50466750  0.12733375  0.41170400  1
  O  O2402  1  0.50466750  0.12733375  0.66170400  1
  O  O2403  1  0.50466750  0.12733375  0.91170400  1
  O  O2404  1  0.50466750  0.37733375  0.16170400  1
  O  O2405  1  0.50466750  0.37733375  0.41170400  1
  O  O2406  1  0.50466750  0.37733375  0.66170400  1
  O  O2407  1  0.50466750  0.37733375  0.91170400  1
  O  O2408  1  0.50466750  0.62733375  0.16170400  1
  O  O2409  1  0.50466750  0.62733375  0.41170400  1
  O  O2410  1  0.50466750  0.62733375  0.66170400  1
  O  O2411  1  0.50466750  0.62733375  0.91170400  1
  O  O2412  1  0.50466750  0.87733375  0.16170400  1
  O  O2413  1  0.50466750  0.87733375  0.41170400  1
  O  O2414  1  0.50466750  0.87733375  0.66170400  1
  O  O2415  1  0.50466750  0.87733375  0.91170400  1
  O  O2416  1  0.75466750  0.12733375  0.16170400  1
  O  O2417  1  0.75466750  0.12733375  0.41170400  1
  O  O2418  1  0.75466750  0.12733375  0.66170400  1
  O  O2419  1  0.75466750  0.12733375  0.91170400  1
  O  O2420  1  0.75466750  0.37733375  0.16170400  1
  O  O2421  1  0.75466750  0.37733375  0.41170400  1
  O  O2422  1  0.75466750  0.37733375  0.66170400  1
  O  O2423  1  0.75466750  0.37733375  0.91170400  1
  O  O2424  1  0.75466750  0.62733375  0.16170400  1
  O  O2425  1  0.75466750  0.62733375  0.41170400  1
  O  O2426  1  0.75466750  0.62733375  0.66170400  1
  O  O2427  1  0.75466750  0.62733375  0.91170400  1
  O  O2428  1  0.75466750  0.87733375  0.16170400  1
  O  O2429  1  0.75466750  0.87733375  0.41170400  1
  O  O2430  1  0.75466750  0.87733375  0.66170400  1
  O  O2431  1  0.75466750  0.87733375  0.91170400  1
  O  O2432  1  0.04396325  0.08792650  0.13820450  1
  O  O2433  1  0.04396325  0.08792650  0.38820450  1
  O  O2434  1  0.04396325  0.08792650  0.63820450  1
  O  O2435  1  0.04396325  0.08792650  0.88820450  1
  O  O2436  1  0.04396325  0.33792650  0.13820450  1
  O  O2437  1  0.04396325  0.33792650  0.38820450  1
  O  O2438  1  0.04396325  0.33792650  0.63820450  1
  O  O2439  1  0.04396325  0.33792650  0.88820450  1
  O  O2440  1  0.04396325  0.58792650  0.13820450  1
  O  O2441  1  0.04396325  0.58792650  0.38820450  1
  O  O2442  1  0.04396325  0.58792650  0.63820450  1
  O  O2443  1  0.04396325  0.58792650  0.88820450  1
  O  O2444  1  0.04396325  0.83792650  0.13820450  1
  O  O2445  1  0.04396325  0.83792650  0.38820450  1
  O  O2446  1  0.04396325  0.83792650  0.63820450  1
  O  O2447  1  0.04396325  0.83792650  0.88820450  1
  O  O2448  1  0.29396325  0.08792650  0.13820450  1
  O  O2449  1  0.29396325  0.08792650  0.38820450  1
  O  O2450  1  0.29396325  0.08792650  0.63820450  1
  O  O2451  1  0.29396325  0.08792650  0.88820450  1
  O  O2452  1  0.29396325  0.33792650  0.13820450  1
  O  O2453  1  0.29396325  0.33792650  0.38820450  1
  O  O2454  1  0.29396325  0.33792650  0.63820450  1
  O  O2455  1  0.29396325  0.33792650  0.88820450  1
  O  O2456  1  0.29396325  0.58792650  0.13820450  1
  O  O2457  1  0.29396325  0.58792650  0.38820450  1
  O  O2458  1  0.29396325  0.58792650  0.63820450  1
  O  O2459  1  0.29396325  0.58792650  0.88820450  1
  O  O2460  1  0.29396325  0.83792650  0.13820450  1
  O  O2461  1  0.29396325  0.83792650  0.38820450  1
  O  O2462  1  0.29396325  0.83792650  0.63820450  1
  O  O2463  1  0.29396325  0.83792650  0.88820450  1
  O  O2464  1  0.54396325  0.08792650  0.13820450  1
  O  O2465  1  0.54396325  0.08792650  0.38820450  1
  O  O2466  1  0.54396325  0.08792650  0.63820450  1
  O  O2467  1  0.54396325  0.08792650  0.88820450  1
  O  O2468  1  0.54396325  0.33792650  0.13820450  1
  O  O2469  1  0.54396325  0.33792650  0.38820450  1
  O  O2470  1  0.54396325  0.33792650  0.63820450  1
  O  O2471  1  0.54396325  0.33792650  0.88820450  1
  O  O2472  1  0.54396325  0.58792650  0.13820450  1
  O  O2473  1  0.54396325  0.58792650  0.38820450  1
  O  O2474  1  0.54396325  0.58792650  0.63820450  1
  O  O2475  1  0.54396325  0.58792650  0.88820450  1
  O  O2476  1  0.54396325  0.83792650  0.13820450  1
  O  O2477  1  0.54396325  0.83792650  0.38820450  1
  O  O2478  1  0.54396325  0.83792650  0.63820450  1
  O  O2479  1  0.54396325  0.83792650  0.88820450  1
  O  O2480  1  0.79396325  0.08792650  0.13820450  1
  O  O2481  1  0.79396325  0.08792650  0.38820450  1
  O  O2482  1  0.79396325  0.08792650  0.63820450  1
  O  O2483  1  0.79396325  0.08792650  0.88820450  1
  O  O2484  1  0.79396325  0.33792650  0.13820450  1
  O  O2485  1  0.79396325  0.33792650  0.38820450  1
  O  O2486  1  0.79396325  0.33792650  0.63820450  1
  O  O2487  1  0.79396325  0.33792650  0.88820450  1
  O  O2488  1  0.79396325  0.58792650  0.13820450  1
  O  O2489  1  0.79396325  0.58792650  0.38820450  1
  O  O2490  1  0.79396325  0.58792650  0.63820450  1
  O  O2491  1  0.79396325  0.58792650  0.88820450  1
  O  O2492  1  0.79396325  0.83792650  0.13820450  1
  O  O2493  1  0.79396325  0.83792650  0.38820450  1
  O  O2494  1  0.79396325  0.83792650  0.63820450  1
  O  O2495  1  0.79396325  0.83792650  0.88820450  1
  O  O2496  1  0.20603675  0.04396325  0.01320450  1
  O  O2497  1  0.20603675  0.04396325  0.26320450  1
  O  O2498  1  0.20603675  0.04396325  0.51320450  1
  O  O2499  1  0.20603675  0.04396325  0.76320450  1
  O  O2500  1  0.20603675  0.29396325  0.01320450  1
  O  O2501  1  0.20603675  0.29396325  0.26320450  1
  O  O2502  1  0.20603675  0.29396325  0.51320450  1
  O  O2503  1  0.20603675  0.29396325  0.76320450  1
  O  O2504  1  0.20603675  0.54396325  0.01320450  1
  O  O2505  1  0.20603675  0.54396325  0.26320450  1
  O  O2506  1  0.20603675  0.54396325  0.51320450  1
  O  O2507  1  0.20603675  0.54396325  0.76320450  1
  O  O2508  1  0.20603675  0.79396325  0.01320450  1
  O  O2509  1  0.20603675  0.79396325  0.26320450  1
  O  O2510  1  0.20603675  0.79396325  0.51320450  1
  O  O2511  1  0.20603675  0.79396325  0.76320450  1
  O  O2512  1  0.45603675  0.04396325  0.01320450  1
  O  O2513  1  0.45603675  0.04396325  0.26320450  1
  O  O2514  1  0.45603675  0.04396325  0.51320450  1
  O  O2515  1  0.45603675  0.04396325  0.76320450  1
  O  O2516  1  0.45603675  0.29396325  0.01320450  1
  O  O2517  1  0.45603675  0.29396325  0.26320450  1
  O  O2518  1  0.45603675  0.29396325  0.51320450  1
  O  O2519  1  0.45603675  0.29396325  0.76320450  1
  O  O2520  1  0.45603675  0.54396325  0.01320450  1
  O  O2521  1  0.45603675  0.54396325  0.26320450  1
  O  O2522  1  0.45603675  0.54396325  0.51320450  1
  O  O2523  1  0.45603675  0.54396325  0.76320450  1
  O  O2524  1  0.45603675  0.79396325  0.01320450  1
  O  O2525  1  0.45603675  0.79396325  0.26320450  1
  O  O2526  1  0.45603675  0.79396325  0.51320450  1
  O  O2527  1  0.45603675  0.79396325  0.76320450  1
  O  O2528  1  0.70603675  0.04396325  0.01320450  1
  O  O2529  1  0.70603675  0.04396325  0.26320450  1
  O  O2530  1  0.70603675  0.04396325  0.51320450  1
  O  O2531  1  0.70603675  0.04396325  0.76320450  1
  O  O2532  1  0.70603675  0.29396325  0.01320450  1
  O  O2533  1  0.70603675  0.29396325  0.26320450  1
  O  O2534  1  0.70603675  0.29396325  0.51320450  1
  O  O2535  1  0.70603675  0.29396325  0.76320450  1
  O  O2536  1  0.70603675  0.54396325  0.01320450  1
  O  O2537  1  0.70603675  0.54396325  0.26320450  1
  O  O2538  1  0.70603675  0.54396325  0.51320450  1
  O  O2539  1  0.70603675  0.54396325  0.76320450  1
  O  O2540  1  0.70603675  0.79396325  0.01320450  1
  O  O2541  1  0.70603675  0.79396325  0.26320450  1
  O  O2542  1  0.70603675  0.79396325  0.51320450  1
  O  O2543  1  0.70603675  0.79396325  0.76320450  1
  O  O2544  1  0.95603675  0.04396325  0.01320450  1
  O  O2545  1  0.95603675  0.04396325  0.26320450  1
  O  O2546  1  0.95603675  0.04396325  0.51320450  1
  O  O2547  1  0.95603675  0.04396325  0.76320450  1
  O  O2548  1  0.95603675  0.29396325  0.01320450  1
  O  O2549  1  0.95603675  0.29396325  0.26320450  1
  O  O2550  1  0.95603675  0.29396325  0.51320450  1
  O  O2551  1  0.95603675  0.29396325  0.76320450  1
  O  O2552  1  0.95603675  0.54396325  0.01320450  1
  O  O2553  1  0.95603675  0.54396325  0.26320450  1
  O  O2554  1  0.95603675  0.54396325  0.51320450  1
  O  O2555  1  0.95603675  0.54396325  0.76320450  1
  O  O2556  1  0.95603675  0.79396325  0.01320450  1
  O  O2557  1  0.95603675  0.79396325  0.26320450  1
  O  O2558  1  0.95603675  0.79396325  0.51320450  1
  O  O2559  1  0.95603675  0.79396325  0.76320450  1
  O  O2560  1  0.12266625  0.12733375  0.16170400  1
  O  O2561  1  0.12266625  0.12733375  0.41170400  1
  O  O2562  1  0.12266625  0.12733375  0.66170400  1
  O  O2563  1  0.12266625  0.12733375  0.91170400  1
  O  O2564  1  0.12266625  0.37733375  0.16170400  1
  O  O2565  1  0.12266625  0.37733375  0.41170400  1
  O  O2566  1  0.12266625  0.37733375  0.66170400  1
  O  O2567  1  0.12266625  0.37733375  0.91170400  1
  O  O2568  1  0.12266625  0.62733375  0.16170400  1
  O  O2569  1  0.12266625  0.62733375  0.41170400  1
  O  O2570  1  0.12266625  0.62733375  0.66170400  1
  O  O2571  1  0.12266625  0.62733375  0.91170400  1
  O  O2572  1  0.12266625  0.87733375  0.16170400  1
  O  O2573  1  0.12266625  0.87733375  0.41170400  1
  O  O2574  1  0.12266625  0.87733375  0.66170400  1
  O  O2575  1  0.12266625  0.87733375  0.91170400  1
  O  O2576  1  0.37266625  0.12733375  0.16170400  1
  O  O2577  1  0.37266625  0.12733375  0.41170400  1
  O  O2578  1  0.37266625  0.12733375  0.66170400  1
  O  O2579  1  0.37266625  0.12733375  0.91170400  1
  O  O2580  1  0.37266625  0.37733375  0.16170400  1
  O  O2581  1  0.37266625  0.37733375  0.41170400  1
  O  O2582  1  0.37266625  0.37733375  0.66170400  1
  O  O2583  1  0.37266625  0.37733375  0.91170400  1
  O  O2584  1  0.37266625  0.62733375  0.16170400  1
  O  O2585  1  0.37266625  0.62733375  0.41170400  1
  O  O2586  1  0.37266625  0.62733375  0.66170400  1
  O  O2587  1  0.37266625  0.62733375  0.91170400  1
  O  O2588  1  0.37266625  0.87733375  0.16170400  1
  O  O2589  1  0.37266625  0.87733375  0.41170400  1
  O  O2590  1  0.37266625  0.87733375  0.66170400  1
  O  O2591  1  0.37266625  0.87733375  0.91170400  1
  O  O2592  1  0.62266625  0.12733375  0.16170400  1
  O  O2593  1  0.62266625  0.12733375  0.41170400  1
  O  O2594  1  0.62266625  0.12733375  0.66170400  1
  O  O2595  1  0.62266625  0.12733375  0.91170400  1
  O  O2596  1  0.62266625  0.37733375  0.16170400  1
  O  O2597  1  0.62266625  0.37733375  0.41170400  1
  O  O2598  1  0.62266625  0.37733375  0.66170400  1
  O  O2599  1  0.62266625  0.37733375  0.91170400  1
  O  O2600  1  0.62266625  0.62733375  0.16170400  1
  O  O2601  1  0.62266625  0.62733375  0.41170400  1
  O  O2602  1  0.62266625  0.62733375  0.66170400  1
  O  O2603  1  0.62266625  0.62733375  0.91170400  1
  O  O2604  1  0.62266625  0.87733375  0.16170400  1
  O  O2605  1  0.62266625  0.87733375  0.41170400  1
  O  O2606  1  0.62266625  0.87733375  0.66170400  1
  O  O2607  1  0.62266625  0.87733375  0.91170400  1
  O  O2608  1  0.87266625  0.12733375  0.16170400  1
  O  O2609  1  0.87266625  0.12733375  0.41170400  1
  O  O2610  1  0.87266625  0.12733375  0.66170400  1
  O  O2611  1  0.87266625  0.12733375  0.91170400  1
  O  O2612  1  0.87266625  0.37733375  0.16170400  1
  O  O2613  1  0.87266625  0.37733375  0.41170400  1
  O  O2614  1  0.87266625  0.37733375  0.66170400  1
  O  O2615  1  0.87266625  0.37733375  0.91170400  1
  O  O2616  1  0.87266625  0.62733375  0.16170400  1
  O  O2617  1  0.87266625  0.62733375  0.41170400  1
  O  O2618  1  0.87266625  0.62733375  0.66170400  1
  O  O2619  1  0.87266625  0.62733375  0.91170400  1
  O  O2620  1  0.87266625  0.87733375  0.16170400  1
  O  O2621  1  0.87266625  0.87733375  0.41170400  1
  O  O2622  1  0.87266625  0.87733375  0.66170400  1
  O  O2623  1  0.87266625  0.87733375  0.91170400  1
  O  O2624  1  0.16207350  0.20603675  0.13820450  1
  O  O2625  1  0.16207350  0.20603675  0.38820450  1
  O  O2626  1  0.16207350  0.20603675  0.63820450  1
  O  O2627  1  0.16207350  0.20603675  0.88820450  1
  O  O2628  1  0.16207350  0.45603675  0.13820450  1
  O  O2629  1  0.16207350  0.45603675  0.38820450  1
  O  O2630  1  0.16207350  0.45603675  0.63820450  1
  O  O2631  1  0.16207350  0.45603675  0.88820450  1
  O  O2632  1  0.16207350  0.70603675  0.13820450  1
  O  O2633  1  0.16207350  0.70603675  0.38820450  1
  O  O2634  1  0.16207350  0.70603675  0.63820450  1
  O  O2635  1  0.16207350  0.70603675  0.88820450  1
  O  O2636  1  0.16207350  0.95603675  0.13820450  1
  O  O2637  1  0.16207350  0.95603675  0.38820450  1
  O  O2638  1  0.16207350  0.95603675  0.63820450  1
  O  O2639  1  0.16207350  0.95603675  0.88820450  1
  O  O2640  1  0.41207350  0.20603675  0.13820450  1
  O  O2641  1  0.41207350  0.20603675  0.38820450  1
  O  O2642  1  0.41207350  0.20603675  0.63820450  1
  O  O2643  1  0.41207350  0.20603675  0.88820450  1
  O  O2644  1  0.41207350  0.45603675  0.13820450  1
  O  O2645  1  0.41207350  0.45603675  0.38820450  1
  O  O2646  1  0.41207350  0.45603675  0.63820450  1
  O  O2647  1  0.41207350  0.45603675  0.88820450  1
  O  O2648  1  0.41207350  0.70603675  0.13820450  1
  O  O2649  1  0.41207350  0.70603675  0.38820450  1
  O  O2650  1  0.41207350  0.70603675  0.63820450  1
  O  O2651  1  0.41207350  0.70603675  0.88820450  1
  O  O2652  1  0.41207350  0.95603675  0.13820450  1
  O  O2653  1  0.41207350  0.95603675  0.38820450  1
  O  O2654  1  0.41207350  0.95603675  0.63820450  1
  O  O2655  1  0.41207350  0.95603675  0.88820450  1
  O  O2656  1  0.66207350  0.20603675  0.13820450  1
  O  O2657  1  0.66207350  0.20603675  0.38820450  1
  O  O2658  1  0.66207350  0.20603675  0.63820450  1
  O  O2659  1  0.66207350  0.20603675  0.88820450  1
  O  O2660  1  0.66207350  0.45603675  0.13820450  1
  O  O2661  1  0.66207350  0.45603675  0.38820450  1
  O  O2662  1  0.66207350  0.45603675  0.63820450  1
  O  O2663  1  0.66207350  0.45603675  0.88820450  1
  O  O2664  1  0.66207350  0.70603675  0.13820450  1
  O  O2665  1  0.66207350  0.70603675  0.38820450  1
  O  O2666  1  0.66207350  0.70603675  0.63820450  1
  O  O2667  1  0.66207350  0.70603675  0.88820450  1
  O  O2668  1  0.66207350  0.95603675  0.13820450  1
  O  O2669  1  0.66207350  0.95603675  0.38820450  1
  O  O2670  1  0.66207350  0.95603675  0.63820450  1
  O  O2671  1  0.66207350  0.95603675  0.88820450  1
  O  O2672  1  0.91207350  0.20603675  0.13820450  1
  O  O2673  1  0.91207350  0.20603675  0.38820450  1
  O  O2674  1  0.91207350  0.20603675  0.63820450  1
  O  O2675  1  0.91207350  0.20603675  0.88820450  1
  O  O2676  1  0.91207350  0.45603675  0.13820450  1
  O  O2677  1  0.91207350  0.45603675  0.38820450  1
  O  O2678  1  0.91207350  0.45603675  0.63820450  1
  O  O2679  1  0.91207350  0.45603675  0.88820450  1
  O  O2680  1  0.91207350  0.70603675  0.13820450  1
  O  O2681  1  0.91207350  0.70603675  0.38820450  1
  O  O2682  1  0.91207350  0.70603675  0.63820450  1
  O  O2683  1  0.91207350  0.70603675  0.88820450  1
  O  O2684  1  0.91207350  0.95603675  0.13820450  1
  O  O2685  1  0.91207350  0.95603675  0.38820450  1
  O  O2686  1  0.91207350  0.95603675  0.63820450  1
  O  O2687  1  0.91207350  0.95603675  0.88820450  1
  O  O2688  1  0.24533250  0.12266625  0.03670400  1
  O  O2689  1  0.24533250  0.12266625  0.28670400  1
  O  O2690  1  0.24533250  0.12266625  0.53670400  1
  O  O2691  1  0.24533250  0.12266625  0.78670400  1
  O  O2692  1  0.24533250  0.37266625  0.03670400  1
  O  O2693  1  0.24533250  0.37266625  0.28670400  1
  O  O2694  1  0.24533250  0.37266625  0.53670400  1
  O  O2695  1  0.24533250  0.37266625  0.78670400  1
  O  O2696  1  0.24533250  0.62266625  0.03670400  1
  O  O2697  1  0.24533250  0.62266625  0.28670400  1
  O  O2698  1  0.24533250  0.62266625  0.53670400  1
  O  O2699  1  0.24533250  0.62266625  0.78670400  1
  O  O2700  1  0.24533250  0.87266625  0.03670400  1
  O  O2701  1  0.24533250  0.87266625  0.28670400  1
  O  O2702  1  0.24533250  0.87266625  0.53670400  1
  O  O2703  1  0.24533250  0.87266625  0.78670400  1
  O  O2704  1  0.49533250  0.12266625  0.03670400  1
  O  O2705  1  0.49533250  0.12266625  0.28670400  1
  O  O2706  1  0.49533250  0.12266625  0.53670400  1
  O  O2707  1  0.49533250  0.12266625  0.78670400  1
  O  O2708  1  0.49533250  0.37266625  0.03670400  1
  O  O2709  1  0.49533250  0.37266625  0.28670400  1
  O  O2710  1  0.49533250  0.37266625  0.53670400  1
  O  O2711  1  0.49533250  0.37266625  0.78670400  1
  O  O2712  1  0.49533250  0.62266625  0.03670400  1
  O  O2713  1  0.49533250  0.62266625  0.28670400  1
  O  O2714  1  0.49533250  0.62266625  0.53670400  1
  O  O2715  1  0.49533250  0.62266625  0.78670400  1
  O  O2716  1  0.49533250  0.87266625  0.03670400  1
  O  O2717  1  0.49533250  0.87266625  0.28670400  1
  O  O2718  1  0.49533250  0.87266625  0.53670400  1
  O  O2719  1  0.49533250  0.87266625  0.78670400  1
  O  O2720  1  0.74533250  0.12266625  0.03670400  1
  O  O2721  1  0.74533250  0.12266625  0.28670400  1
  O  O2722  1  0.74533250  0.12266625  0.53670400  1
  O  O2723  1  0.74533250  0.12266625  0.78670400  1
  O  O2724  1  0.74533250  0.37266625  0.03670400  1
  O  O2725  1  0.74533250  0.37266625  0.28670400  1
  O  O2726  1  0.74533250  0.37266625  0.53670400  1
  O  O2727  1  0.74533250  0.37266625  0.78670400  1
  O  O2728  1  0.74533250  0.62266625  0.03670400  1
  O  O2729  1  0.74533250  0.62266625  0.28670400  1
  O  O2730  1  0.74533250  0.62266625  0.53670400  1
  O  O2731  1  0.74533250  0.62266625  0.78670400  1
  O  O2732  1  0.74533250  0.87266625  0.03670400  1
  O  O2733  1  0.74533250  0.87266625  0.28670400  1
  O  O2734  1  0.74533250  0.87266625  0.53670400  1
  O  O2735  1  0.74533250  0.87266625  0.78670400  1
  O  O2736  1  0.99533250  0.12266625  0.03670400  1
  O  O2737  1  0.99533250  0.12266625  0.28670400  1
  O  O2738  1  0.99533250  0.12266625  0.53670400  1
  O  O2739  1  0.99533250  0.12266625  0.78670400  1
  O  O2740  1  0.99533250  0.37266625  0.03670400  1
  O  O2741  1  0.99533250  0.37266625  0.28670400  1
  O  O2742  1  0.99533250  0.37266625  0.53670400  1
  O  O2743  1  0.99533250  0.37266625  0.78670400  1
  O  O2744  1  0.99533250  0.62266625  0.03670400  1
  O  O2745  1  0.99533250  0.62266625  0.28670400  1
  O  O2746  1  0.99533250  0.62266625  0.53670400  1
  O  O2747  1  0.99533250  0.62266625  0.78670400  1
  O  O2748  1  0.99533250  0.87266625  0.03670400  1
  O  O2749  1  0.99533250  0.87266625  0.28670400  1
  O  O2750  1  0.99533250  0.87266625  0.53670400  1
  O  O2751  1  0.99533250  0.87266625  0.78670400  1
  O  O2752  1  0.20565875  0.04434125  0.18966600  1
  O  O2753  1  0.20565875  0.04434125  0.43966600  1
  O  O2754  1  0.20565875  0.04434125  0.68966600  1
  O  O2755  1  0.20565875  0.04434125  0.93966600  1
  O  O2756  1  0.20565875  0.29434125  0.18966600  1
  O  O2757  1  0.20565875  0.29434125  0.43966600  1
  O  O2758  1  0.20565875  0.29434125  0.68966600  1
  O  O2759  1  0.20565875  0.29434125  0.93966600  1
  O  O2760  1  0.20565875  0.54434125  0.18966600  1
  O  O2761  1  0.20565875  0.54434125  0.43966600  1
  O  O2762  1  0.20565875  0.54434125  0.68966600  1
  O  O2763  1  0.20565875  0.54434125  0.93966600  1
  O  O2764  1  0.20565875  0.79434125  0.18966600  1
  O  O2765  1  0.20565875  0.79434125  0.43966600  1
  O  O2766  1  0.20565875  0.79434125  0.68966600  1
  O  O2767  1  0.20565875  0.79434125  0.93966600  1
  O  O2768  1  0.45565875  0.04434125  0.18966600  1
  O  O2769  1  0.45565875  0.04434125  0.43966600  1
  O  O2770  1  0.45565875  0.04434125  0.68966600  1
  O  O2771  1  0.45565875  0.04434125  0.93966600  1
  O  O2772  1  0.45565875  0.29434125  0.18966600  1
  O  O2773  1  0.45565875  0.29434125  0.43966600  1
  O  O2774  1  0.45565875  0.29434125  0.68966600  1
  O  O2775  1  0.45565875  0.29434125  0.93966600  1
  O  O2776  1  0.45565875  0.54434125  0.18966600  1
  O  O2777  1  0.45565875  0.54434125  0.43966600  1
  O  O2778  1  0.45565875  0.54434125  0.68966600  1
  O  O2779  1  0.45565875  0.54434125  0.93966600  1
  O  O2780  1  0.45565875  0.79434125  0.18966600  1
  O  O2781  1  0.45565875  0.79434125  0.43966600  1
  O  O2782  1  0.45565875  0.79434125  0.68966600  1
  O  O2783  1  0.45565875  0.79434125  0.93966600  1
  O  O2784  1  0.70565875  0.04434125  0.18966600  1
  O  O2785  1  0.70565875  0.04434125  0.43966600  1
  O  O2786  1  0.70565875  0.04434125  0.68966600  1
  O  O2787  1  0.70565875  0.04434125  0.93966600  1
  O  O2788  1  0.70565875  0.29434125  0.18966600  1
  O  O2789  1  0.70565875  0.29434125  0.43966600  1
  O  O2790  1  0.70565875  0.29434125  0.68966600  1
  O  O2791  1  0.70565875  0.29434125  0.93966600  1
  O  O2792  1  0.70565875  0.54434125  0.18966600  1
  O  O2793  1  0.70565875  0.54434125  0.43966600  1
  O  O2794  1  0.70565875  0.54434125  0.68966600  1
  O  O2795  1  0.70565875  0.54434125  0.93966600  1
  O  O2796  1  0.70565875  0.79434125  0.18966600  1
  O  O2797  1  0.70565875  0.79434125  0.43966600  1
  O  O2798  1  0.70565875  0.79434125  0.68966600  1
  O  O2799  1  0.70565875  0.79434125  0.93966600  1
  O  O2800  1  0.95565875  0.04434125  0.18966600  1
  O  O2801  1  0.95565875  0.04434125  0.43966600  1
  O  O2802  1  0.95565875  0.04434125  0.68966600  1
  O  O2803  1  0.95565875  0.04434125  0.93966600  1
  O  O2804  1  0.95565875  0.29434125  0.18966600  1
  O  O2805  1  0.95565875  0.29434125  0.43966600  1
  O  O2806  1  0.95565875  0.29434125  0.68966600  1
  O  O2807  1  0.95565875  0.29434125  0.93966600  1
  O  O2808  1  0.95565875  0.54434125  0.18966600  1
  O  O2809  1  0.95565875  0.54434125  0.43966600  1
  O  O2810  1  0.95565875  0.54434125  0.68966600  1
  O  O2811  1  0.95565875  0.54434125  0.93966600  1
  O  O2812  1  0.95565875  0.79434125  0.18966600  1
  O  O2813  1  0.95565875  0.79434125  0.43966600  1
  O  O2814  1  0.95565875  0.79434125  0.68966600  1
  O  O2815  1  0.95565875  0.79434125  0.93966600  1
  O  O2816  1  0.12733375  0.12266625  0.03670400  1
  O  O2817  1  0.12733375  0.12266625  0.28670400  1
  O  O2818  1  0.12733375  0.12266625  0.53670400  1
  O  O2819  1  0.12733375  0.12266625  0.78670400  1
  O  O2820  1  0.12733375  0.37266625  0.03670400  1
  O  O2821  1  0.12733375  0.37266625  0.28670400  1
  O  O2822  1  0.12733375  0.37266625  0.53670400  1
  O  O2823  1  0.12733375  0.37266625  0.78670400  1
  O  O2824  1  0.12733375  0.62266625  0.03670400  1
  O  O2825  1  0.12733375  0.62266625  0.28670400  1
  O  O2826  1  0.12733375  0.62266625  0.53670400  1
  O  O2827  1  0.12733375  0.62266625  0.78670400  1
  O  O2828  1  0.12733375  0.87266625  0.03670400  1
  O  O2829  1  0.12733375  0.87266625  0.28670400  1
  O  O2830  1  0.12733375  0.87266625  0.53670400  1
  O  O2831  1  0.12733375  0.87266625  0.78670400  1
  O  O2832  1  0.37733375  0.12266625  0.03670400  1
  O  O2833  1  0.37733375  0.12266625  0.28670400  1
  O  O2834  1  0.37733375  0.12266625  0.53670400  1
  O  O2835  1  0.37733375  0.12266625  0.78670400  1
  O  O2836  1  0.37733375  0.37266625  0.03670400  1
  O  O2837  1  0.37733375  0.37266625  0.28670400  1
  O  O2838  1  0.37733375  0.37266625  0.53670400  1
  O  O2839  1  0.37733375  0.37266625  0.78670400  1
  O  O2840  1  0.37733375  0.62266625  0.03670400  1
  O  O2841  1  0.37733375  0.62266625  0.28670400  1
  O  O2842  1  0.37733375  0.62266625  0.53670400  1
  O  O2843  1  0.37733375  0.62266625  0.78670400  1
  O  O2844  1  0.37733375  0.87266625  0.03670400  1
  O  O2845  1  0.37733375  0.87266625  0.28670400  1
  O  O2846  1  0.37733375  0.87266625  0.53670400  1
  O  O2847  1  0.37733375  0.87266625  0.78670400  1
  O  O2848  1  0.62733375  0.12266625  0.03670400  1
  O  O2849  1  0.62733375  0.12266625  0.28670400  1
  O  O2850  1  0.62733375  0.12266625  0.53670400  1
  O  O2851  1  0.62733375  0.12266625  0.78670400  1
  O  O2852  1  0.62733375  0.37266625  0.03670400  1
  O  O2853  1  0.62733375  0.37266625  0.28670400  1
  O  O2854  1  0.62733375  0.37266625  0.53670400  1
  O  O2855  1  0.62733375  0.37266625  0.78670400  1
  O  O2856  1  0.62733375  0.62266625  0.03670400  1
  O  O2857  1  0.62733375  0.62266625  0.28670400  1
  O  O2858  1  0.62733375  0.62266625  0.53670400  1
  O  O2859  1  0.62733375  0.62266625  0.78670400  1
  O  O2860  1  0.62733375  0.87266625  0.03670400  1
  O  O2861  1  0.62733375  0.87266625  0.28670400  1
  O  O2862  1  0.62733375  0.87266625  0.53670400  1
  O  O2863  1  0.62733375  0.87266625  0.78670400  1
  O  O2864  1  0.87733375  0.12266625  0.03670400  1
  O  O2865  1  0.87733375  0.12266625  0.28670400  1
  O  O2866  1  0.87733375  0.12266625  0.53670400  1
  O  O2867  1  0.87733375  0.12266625  0.78670400  1
  O  O2868  1  0.87733375  0.37266625  0.03670400  1
  O  O2869  1  0.87733375  0.37266625  0.28670400  1
  O  O2870  1  0.87733375  0.37266625  0.53670400  1
  O  O2871  1  0.87733375  0.37266625  0.78670400  1
  O  O2872  1  0.87733375  0.62266625  0.03670400  1
  O  O2873  1  0.87733375  0.62266625  0.28670400  1
  O  O2874  1  0.87733375  0.62266625  0.53670400  1
  O  O2875  1  0.87733375  0.62266625  0.78670400  1
  O  O2876  1  0.87733375  0.87266625  0.03670400  1
  O  O2877  1  0.87733375  0.87266625  0.28670400  1
  O  O2878  1  0.87733375  0.87266625  0.53670400  1
  O  O2879  1  0.87733375  0.87266625  0.78670400  1
  O  O2880  1  0.12733375  0.00466750  0.03670400  1
  O  O2881  1  0.12733375  0.00466750  0.28670400  1
  O  O2882  1  0.12733375  0.00466750  0.53670400  1
  O  O2883  1  0.12733375  0.00466750  0.78670400  1
  O  O2884  1  0.12733375  0.25466750  0.03670400  1
  O  O2885  1  0.12733375  0.25466750  0.28670400  1
  O  O2886  1  0.12733375  0.25466750  0.53670400  1
  O  O2887  1  0.12733375  0.25466750  0.78670400  1
  O  O2888  1  0.12733375  0.50466750  0.03670400  1
  O  O2889  1  0.12733375  0.50466750  0.28670400  1
  O  O2890  1  0.12733375  0.50466750  0.53670400  1
  O  O2891  1  0.12733375  0.50466750  0.78670400  1
  O  O2892  1  0.12733375  0.75466750  0.03670400  1
  O  O2893  1  0.12733375  0.75466750  0.28670400  1
  O  O2894  1  0.12733375  0.75466750  0.53670400  1
  O  O2895  1  0.12733375  0.75466750  0.78670400  1
  O  O2896  1  0.37733375  0.00466750  0.03670400  1
  O  O2897  1  0.37733375  0.00466750  0.28670400  1
  O  O2898  1  0.37733375  0.00466750  0.53670400  1
  O  O2899  1  0.37733375  0.00466750  0.78670400  1
  O  O2900  1  0.37733375  0.25466750  0.03670400  1
  O  O2901  1  0.37733375  0.25466750  0.28670400  1
  O  O2902  1  0.37733375  0.25466750  0.53670400  1
  O  O2903  1  0.37733375  0.25466750  0.78670400  1
  O  O2904  1  0.37733375  0.50466750  0.03670400  1
  O  O2905  1  0.37733375  0.50466750  0.28670400  1
  O  O2906  1  0.37733375  0.50466750  0.53670400  1
  O  O2907  1  0.37733375  0.50466750  0.78670400  1
  O  O2908  1  0.37733375  0.75466750  0.03670400  1
  O  O2909  1  0.37733375  0.75466750  0.28670400  1
  O  O2910  1  0.37733375  0.75466750  0.53670400  1
  O  O2911  1  0.37733375  0.75466750  0.78670400  1
  O  O2912  1  0.62733375  0.00466750  0.03670400  1
  O  O2913  1  0.62733375  0.00466750  0.28670400  1
  O  O2914  1  0.62733375  0.00466750  0.53670400  1
  O  O2915  1  0.62733375  0.00466750  0.78670400  1
  O  O2916  1  0.62733375  0.25466750  0.03670400  1
  O  O2917  1  0.62733375  0.25466750  0.28670400  1
  O  O2918  1  0.62733375  0.25466750  0.53670400  1
  O  O2919  1  0.62733375  0.25466750  0.78670400  1
  O  O2920  1  0.62733375  0.50466750  0.03670400  1
  O  O2921  1  0.62733375  0.50466750  0.28670400  1
  O  O2922  1  0.62733375  0.50466750  0.53670400  1
  O  O2923  1  0.62733375  0.50466750  0.78670400  1
  O  O2924  1  0.62733375  0.75466750  0.03670400  1
  O  O2925  1  0.62733375  0.75466750  0.28670400  1
  O  O2926  1  0.62733375  0.75466750  0.53670400  1
  O  O2927  1  0.62733375  0.75466750  0.78670400  1
  O  O2928  1  0.87733375  0.00466750  0.03670400  1
  O  O2929  1  0.87733375  0.00466750  0.28670400  1
  O  O2930  1  0.87733375  0.00466750  0.53670400  1
  O  O2931  1  0.87733375  0.00466750  0.78670400  1
  O  O2932  1  0.87733375  0.25466750  0.03670400  1
  O  O2933  1  0.87733375  0.25466750  0.28670400  1
  O  O2934  1  0.87733375  0.25466750  0.53670400  1
  O  O2935  1  0.87733375  0.25466750  0.78670400  1
  O  O2936  1  0.87733375  0.50466750  0.03670400  1
  O  O2937  1  0.87733375  0.50466750  0.28670400  1
  O  O2938  1  0.87733375  0.50466750  0.53670400  1
  O  O2939  1  0.87733375  0.50466750  0.78670400  1
  O  O2940  1  0.87733375  0.75466750  0.03670400  1
  O  O2941  1  0.87733375  0.75466750  0.28670400  1
  O  O2942  1  0.87733375  0.75466750  0.53670400  1
  O  O2943  1  0.87733375  0.75466750  0.78670400  1
  O  O2944  1  0.12495550  0.24991100  0.21272075  1
  O  O2945  1  0.12495550  0.24991100  0.46272075  1
  O  O2946  1  0.12495550  0.24991100  0.71272075  1
  O  O2947  1  0.12495550  0.24991100  0.96272075  1
  O  O2948  1  0.12495550  0.49991100  0.21272075  1
  O  O2949  1  0.12495550  0.49991100  0.46272075  1
  O  O2950  1  0.12495550  0.49991100  0.71272075  1
  O  O2951  1  0.12495550  0.49991100  0.96272075  1
  O  O2952  1  0.12495550  0.74991100  0.21272075  1
  O  O2953  1  0.12495550  0.74991100  0.46272075  1
  O  O2954  1  0.12495550  0.74991100  0.71272075  1
  O  O2955  1  0.12495550  0.74991100  0.96272075  1
  O  O2956  1  0.12495550  0.99991100  0.21272075  1
  O  O2957  1  0.12495550  0.99991100  0.46272075  1
  O  O2958  1  0.12495550  0.99991100  0.71272075  1
  O  O2959  1  0.12495550  0.99991100  0.96272075  1
  O  O2960  1  0.37495550  0.24991100  0.21272075  1
  O  O2961  1  0.37495550  0.24991100  0.46272075  1
  O  O2962  1  0.37495550  0.24991100  0.71272075  1
  O  O2963  1  0.37495550  0.24991100  0.96272075  1
  O  O2964  1  0.37495550  0.49991100  0.21272075  1
  O  O2965  1  0.37495550  0.49991100  0.46272075  1
  O  O2966  1  0.37495550  0.49991100  0.71272075  1
  O  O2967  1  0.37495550  0.49991100  0.96272075  1
  O  O2968  1  0.37495550  0.74991100  0.21272075  1
  O  O2969  1  0.37495550  0.74991100  0.46272075  1
  O  O2970  1  0.37495550  0.74991100  0.71272075  1
  O  O2971  1  0.37495550  0.74991100  0.96272075  1
  O  O2972  1  0.37495550  0.99991100  0.21272075  1
  O  O2973  1  0.37495550  0.99991100  0.46272075  1
  O  O2974  1  0.37495550  0.99991100  0.71272075  1
  O  O2975  1  0.37495550  0.99991100  0.96272075  1
  O  O2976  1  0.62495550  0.24991100  0.21272075  1
  O  O2977  1  0.62495550  0.24991100  0.46272075  1
  O  O2978  1  0.62495550  0.24991100  0.71272075  1
  O  O2979  1  0.62495550  0.24991100  0.96272075  1
  O  O2980  1  0.62495550  0.49991100  0.21272075  1
  O  O2981  1  0.62495550  0.49991100  0.46272075  1
  O  O2982  1  0.62495550  0.49991100  0.71272075  1
  O  O2983  1  0.62495550  0.49991100  0.96272075  1
  O  O2984  1  0.62495550  0.74991100  0.21272075  1
  O  O2985  1  0.62495550  0.74991100  0.46272075  1
  O  O2986  1  0.62495550  0.74991100  0.71272075  1
  O  O2987  1  0.62495550  0.74991100  0.96272075  1
  O  O2988  1  0.62495550  0.99991100  0.21272075  1
  O  O2989  1  0.62495550  0.99991100  0.46272075  1
  O  O2990  1  0.62495550  0.99991100  0.71272075  1
  O  O2991  1  0.62495550  0.99991100  0.96272075  1
  O  O2992  1  0.87495550  0.24991100  0.21272075  1
  O  O2993  1  0.87495550  0.24991100  0.46272075  1
  O  O2994  1  0.87495550  0.24991100  0.71272075  1
  O  O2995  1  0.87495550  0.24991100  0.96272075  1
  O  O2996  1  0.87495550  0.49991100  0.21272075  1
  O  O2997  1  0.87495550  0.49991100  0.46272075  1
  O  O2998  1  0.87495550  0.49991100  0.71272075  1
  O  O2999  1  0.87495550  0.49991100  0.96272075  1
  O  O3000  1  0.87495550  0.74991100  0.21272075  1
  O  O3001  1  0.87495550  0.74991100  0.46272075  1
  O  O3002  1  0.87495550  0.74991100  0.71272075  1
  O  O3003  1  0.87495550  0.74991100  0.96272075  1
  O  O3004  1  0.87495550  0.99991100  0.21272075  1
  O  O3005  1  0.87495550  0.99991100  0.46272075  1
  O  O3006  1  0.87495550  0.99991100  0.71272075  1
  O  O3007  1  0.87495550  0.99991100  0.96272075  1
  O  O3008  1  0.16131775  0.20565875  0.06466600  1
  O  O3009  1  0.16131775  0.20565875  0.31466600  1
  O  O3010  1  0.16131775  0.20565875  0.56466600  1
  O  O3011  1  0.16131775  0.20565875  0.81466600  1
  O  O3012  1  0.16131775  0.45565875  0.06466600  1
  O  O3013  1  0.16131775  0.45565875  0.31466600  1
  O  O3014  1  0.16131775  0.45565875  0.56466600  1
  O  O3015  1  0.16131775  0.45565875  0.81466600  1
  O  O3016  1  0.16131775  0.70565875  0.06466600  1
  O  O3017  1  0.16131775  0.70565875  0.31466600  1
  O  O3018  1  0.16131775  0.70565875  0.56466600  1
  O  O3019  1  0.16131775  0.70565875  0.81466600  1
  O  O3020  1  0.16131775  0.95565875  0.06466600  1
  O  O3021  1  0.16131775  0.95565875  0.31466600  1
  O  O3022  1  0.16131775  0.95565875  0.56466600  1
  O  O3023  1  0.16131775  0.95565875  0.81466600  1
  O  O3024  1  0.41131775  0.20565875  0.06466600  1
  O  O3025  1  0.41131775  0.20565875  0.31466600  1
  O  O3026  1  0.41131775  0.20565875  0.56466600  1
  O  O3027  1  0.41131775  0.20565875  0.81466600  1
  O  O3028  1  0.41131775  0.45565875  0.06466600  1
  O  O3029  1  0.41131775  0.45565875  0.31466600  1
  O  O3030  1  0.41131775  0.45565875  0.56466600  1
  O  O3031  1  0.41131775  0.45565875  0.81466600  1
  O  O3032  1  0.41131775  0.70565875  0.06466600  1
  O  O3033  1  0.41131775  0.70565875  0.31466600  1
  O  O3034  1  0.41131775  0.70565875  0.56466600  1
  O  O3035  1  0.41131775  0.70565875  0.81466600  1
  O  O3036  1  0.41131775  0.95565875  0.06466600  1
  O  O3037  1  0.41131775  0.95565875  0.31466600  1
  O  O3038  1  0.41131775  0.95565875  0.56466600  1
  O  O3039  1  0.41131775  0.95565875  0.81466600  1
  O  O3040  1  0.66131775  0.20565875  0.06466600  1
  O  O3041  1  0.66131775  0.20565875  0.31466600  1
  O  O3042  1  0.66131775  0.20565875  0.56466600  1
  O  O3043  1  0.66131775  0.20565875  0.81466600  1
  O  O3044  1  0.66131775  0.45565875  0.06466600  1
  O  O3045  1  0.66131775  0.45565875  0.31466600  1
  O  O3046  1  0.66131775  0.45565875  0.56466600  1
  O  O3047  1  0.66131775  0.45565875  0.81466600  1
  O  O3048  1  0.66131775  0.70565875  0.06466600  1
  O  O3049  1  0.66131775  0.70565875  0.31466600  1
  O  O3050  1  0.66131775  0.70565875  0.56466600  1
  O  O3051  1  0.66131775  0.70565875  0.81466600  1
  O  O3052  1  0.66131775  0.95565875  0.06466600  1
  O  O3053  1  0.66131775  0.95565875  0.31466600  1
  O  O3054  1  0.66131775  0.95565875  0.56466600  1
  O  O3055  1  0.66131775  0.95565875  0.81466600  1
  O  O3056  1  0.91131775  0.20565875  0.06466600  1
  O  O3057  1  0.91131775  0.20565875  0.31466600  1
  O  O3058  1  0.91131775  0.20565875  0.56466600  1
  O  O3059  1  0.91131775  0.20565875  0.81466600  1
  O  O3060  1  0.91131775  0.45565875  0.06466600  1
  O  O3061  1  0.91131775  0.45565875  0.31466600  1
  O  O3062  1  0.91131775  0.45565875  0.56466600  1
  O  O3063  1  0.91131775  0.45565875  0.81466600  1
  O  O3064  1  0.91131775  0.70565875  0.06466600  1
  O  O3065  1  0.91131775  0.70565875  0.31466600  1
  O  O3066  1  0.91131775  0.70565875  0.56466600  1
  O  O3067  1  0.91131775  0.70565875  0.81466600  1
  O  O3068  1  0.91131775  0.95565875  0.06466600  1
  O  O3069  1  0.91131775  0.95565875  0.31466600  1
  O  O3070  1  0.91131775  0.95565875  0.56466600  1
  O  O3071  1  0.91131775  0.95565875  0.81466600  1
  O  O3072  1  0.20579225  0.16158425  0.11070925  1
  O  O3073  1  0.20579225  0.16158425  0.36070925  1
  O  O3074  1  0.20579225  0.16158425  0.61070925  1
  O  O3075  1  0.20579225  0.16158425  0.86070925  1
  O  O3076  1  0.20579225  0.41158425  0.11070925  1
  O  O3077  1  0.20579225  0.41158425  0.36070925  1
  O  O3078  1  0.20579225  0.41158425  0.61070925  1
  O  O3079  1  0.20579225  0.41158425  0.86070925  1
  O  O3080  1  0.20579225  0.66158425  0.11070925  1
  O  O3081  1  0.20579225  0.66158425  0.36070925  1
  O  O3082  1  0.20579225  0.66158425  0.61070925  1
  O  O3083  1  0.20579225  0.66158425  0.86070925  1
  O  O3084  1  0.20579225  0.91158425  0.11070925  1
  O  O3085  1  0.20579225  0.91158425  0.36070925  1
  O  O3086  1  0.20579225  0.91158425  0.61070925  1
  O  O3087  1  0.20579225  0.91158425  0.86070925  1
  O  O3088  1  0.45579225  0.16158425  0.11070925  1
  O  O3089  1  0.45579225  0.16158425  0.36070925  1
  O  O3090  1  0.45579225  0.16158425  0.61070925  1
  O  O3091  1  0.45579225  0.16158425  0.86070925  1
  O  O3092  1  0.45579225  0.41158425  0.11070925  1
  O  O3093  1  0.45579225  0.41158425  0.36070925  1
  O  O3094  1  0.45579225  0.41158425  0.61070925  1
  O  O3095  1  0.45579225  0.41158425  0.86070925  1
  O  O3096  1  0.45579225  0.66158425  0.11070925  1
  O  O3097  1  0.45579225  0.66158425  0.36070925  1
  O  O3098  1  0.45579225  0.66158425  0.61070925  1
  O  O3099  1  0.45579225  0.66158425  0.86070925  1
  O  O3100  1  0.45579225  0.91158425  0.11070925  1
  O  O3101  1  0.45579225  0.91158425  0.36070925  1
  O  O3102  1  0.45579225  0.91158425  0.61070925  1
  O  O3103  1  0.45579225  0.91158425  0.86070925  1
  O  O3104  1  0.70579225  0.16158425  0.11070925  1
  O  O3105  1  0.70579225  0.16158425  0.36070925  1
  O  O3106  1  0.70579225  0.16158425  0.61070925  1
  O  O3107  1  0.70579225  0.16158425  0.86070925  1
  O  O3108  1  0.70579225  0.41158425  0.11070925  1
  O  O3109  1  0.70579225  0.41158425  0.36070925  1
  O  O3110  1  0.70579225  0.41158425  0.61070925  1
  O  O3111  1  0.70579225  0.41158425  0.86070925  1
  O  O3112  1  0.70579225  0.66158425  0.11070925  1
  O  O3113  1  0.70579225  0.66158425  0.36070925  1
  O  O3114  1  0.70579225  0.66158425  0.61070925  1
  O  O3115  1  0.70579225  0.66158425  0.86070925  1
  O  O3116  1  0.70579225  0.91158425  0.11070925  1
  O  O3117  1  0.70579225  0.91158425  0.36070925  1
  O  O3118  1  0.70579225  0.91158425  0.61070925  1
  O  O3119  1  0.70579225  0.91158425  0.86070925  1
  O  O3120  1  0.95579225  0.16158425  0.11070925  1
  O  O3121  1  0.95579225  0.16158425  0.36070925  1
  O  O3122  1  0.95579225  0.16158425  0.61070925  1
  O  O3123  1  0.95579225  0.16158425  0.86070925  1
  O  O3124  1  0.95579225  0.41158425  0.11070925  1
  O  O3125  1  0.95579225  0.41158425  0.36070925  1
  O  O3126  1  0.95579225  0.41158425  0.61070925  1
  O  O3127  1  0.95579225  0.41158425  0.86070925  1
  O  O3128  1  0.95579225  0.66158425  0.11070925  1
  O  O3129  1  0.95579225  0.66158425  0.36070925  1
  O  O3130  1  0.95579225  0.66158425  0.61070925  1
  O  O3131  1  0.95579225  0.66158425  0.86070925  1
  O  O3132  1  0.95579225  0.91158425  0.11070925  1
  O  O3133  1  0.95579225  0.91158425  0.36070925  1
  O  O3134  1  0.95579225  0.91158425  0.61070925  1
  O  O3135  1  0.95579225  0.91158425  0.86070925  1
  O  O3136  1  0.04396325  0.20603675  0.13820450  1
  O  O3137  1  0.04396325  0.20603675  0.38820450  1
  O  O3138  1  0.04396325  0.20603675  0.63820450  1
  O  O3139  1  0.04396325  0.20603675  0.88820450  1
  O  O3140  1  0.04396325  0.45603675  0.13820450  1
  O  O3141  1  0.04396325  0.45603675  0.38820450  1
  O  O3142  1  0.04396325  0.45603675  0.63820450  1
  O  O3143  1  0.04396325  0.45603675  0.88820450  1
  O  O3144  1  0.04396325  0.70603675  0.13820450  1
  O  O3145  1  0.04396325  0.70603675  0.38820450  1
  O  O3146  1  0.04396325  0.70603675  0.63820450  1
  O  O3147  1  0.04396325  0.70603675  0.88820450  1
  O  O3148  1  0.04396325  0.95603675  0.13820450  1
  O  O3149  1  0.04396325  0.95603675  0.38820450  1
  O  O3150  1  0.04396325  0.95603675  0.63820450  1
  O  O3151  1  0.04396325  0.95603675  0.88820450  1
  O  O3152  1  0.29396325  0.20603675  0.13820450  1
  O  O3153  1  0.29396325  0.20603675  0.38820450  1
  O  O3154  1  0.29396325  0.20603675  0.63820450  1
  O  O3155  1  0.29396325  0.20603675  0.88820450  1
  O  O3156  1  0.29396325  0.45603675  0.13820450  1
  O  O3157  1  0.29396325  0.45603675  0.38820450  1
  O  O3158  1  0.29396325  0.45603675  0.63820450  1
  O  O3159  1  0.29396325  0.45603675  0.88820450  1
  O  O3160  1  0.29396325  0.70603675  0.13820450  1
  O  O3161  1  0.29396325  0.70603675  0.38820450  1
  O  O3162  1  0.29396325  0.70603675  0.63820450  1
  O  O3163  1  0.29396325  0.70603675  0.88820450  1
  O  O3164  1  0.29396325  0.95603675  0.13820450  1
  O  O3165  1  0.29396325  0.95603675  0.38820450  1
  O  O3166  1  0.29396325  0.95603675  0.63820450  1
  O  O3167  1  0.29396325  0.95603675  0.88820450  1
  O  O3168  1  0.54396325  0.20603675  0.13820450  1
  O  O3169  1  0.54396325  0.20603675  0.38820450  1
  O  O3170  1  0.54396325  0.20603675  0.63820450  1
  O  O3171  1  0.54396325  0.20603675  0.88820450  1
  O  O3172  1  0.54396325  0.45603675  0.13820450  1
  O  O3173  1  0.54396325  0.45603675  0.38820450  1
  O  O3174  1  0.54396325  0.45603675  0.63820450  1
  O  O3175  1  0.54396325  0.45603675  0.88820450  1
  O  O3176  1  0.54396325  0.70603675  0.13820450  1
  O  O3177  1  0.54396325  0.70603675  0.38820450  1
  O  O3178  1  0.54396325  0.70603675  0.63820450  1
  O  O3179  1  0.54396325  0.70603675  0.88820450  1
  O  O3180  1  0.54396325  0.95603675  0.13820450  1
  O  O3181  1  0.54396325  0.95603675  0.38820450  1
  O  O3182  1  0.54396325  0.95603675  0.63820450  1
  O  O3183  1  0.54396325  0.95603675  0.88820450  1
  O  O3184  1  0.79396325  0.20603675  0.13820450  1
  O  O3185  1  0.79396325  0.20603675  0.38820450  1
  O  O3186  1  0.79396325  0.20603675  0.63820450  1
  O  O3187  1  0.79396325  0.20603675  0.88820450  1
  O  O3188  1  0.79396325  0.45603675  0.13820450  1
  O  O3189  1  0.79396325  0.45603675  0.38820450  1
  O  O3190  1  0.79396325  0.45603675  0.63820450  1
  O  O3191  1  0.79396325  0.45603675  0.88820450  1
  O  O3192  1  0.79396325  0.70603675  0.13820450  1
  O  O3193  1  0.79396325  0.70603675  0.38820450  1
  O  O3194  1  0.79396325  0.70603675  0.63820450  1
  O  O3195  1  0.79396325  0.70603675  0.88820450  1
  O  O3196  1  0.79396325  0.95603675  0.13820450  1
  O  O3197  1  0.79396325  0.95603675  0.38820450  1
  O  O3198  1  0.79396325  0.95603675  0.63820450  1
  O  O3199  1  0.79396325  0.95603675  0.88820450  1
