# generated using pymatgen
data_Li2FeGeO4
_symmetry_space_group_name_H-M   'P 1'
_cell_length_a   37.61814023
_cell_length_b   37.61804867
_cell_length_c   41.33515230
_cell_angle_alpha   65.25791980
_cell_angle_beta   65.25788653
_cell_angle_gamma   94.61933169
_symmetry_Int_Tables_number   1
_chemical_formula_structural   Li2FeGeO4
_chemical_formula_sum   'Li1000 Fe500 Ge500 O2000'
_cell_volume   45870.71356469
_cell_formula_units_Z   500
loop_
 _symmetry_equiv_pos_site_id
 _symmetry_equiv_pos_as_xyz
  1  'x, y, z'
loop_
 _atom_site_type_symbol
 _atom_site_label
 _atom_site_symmetry_multiplicity
 _atom_site_fract_x
 _atom_site_fract_y
 _atom_site_fract_z
 _atom_site_occupancy
  Li  Li0  1  0.05812860  0.09166700  0.15005420  1
  Li  Li1  1  0.05812860  0.09166700  0.35005420  1
  Li  Li2  1  0.05812860  0.09166700  0.55005420  1
  Li  Li3  1  0.05812860  0.09166700  0.75005420  1
  Li  Li4  1  0.05812860  0.09166700  0.95005420  1
  Li  Li5  1  0.05812860  0.29166700  0.15005420  1
  Li  Li6  1  0.05812860  0.29166700  0.35005420  1
  Li  Li7  1  0.05812860  0.29166700  0.55005420  1
  Li  Li8  1  0.05812860  0.29166700  0.75005420  1
  Li  Li9  1  0.05812860  0.29166700  0.95005420  1
  Li  Li10  1  0.05812860  0.49166700  0.15005420  1
  Li  Li11  1  0.05812860  0.49166700  0.35005420  1
  Li  Li12  1  0.05812860  0.49166700  0.55005420  1
  Li  Li13  1  0.05812860  0.49166700  0.75005420  1
  Li  Li14  1  0.05812860  0.49166700  0.95005420  1
  Li  Li15  1  0.05812860  0.69166700  0.15005420  1
  Li  Li16  1  0.05812860  0.69166700  0.35005420  1
  Li  Li17  1  0.05812860  0.69166700  0.55005420  1
  Li  Li18  1  0.05812860  0.69166700  0.75005420  1
  Li  Li19  1  0.05812860  0.69166700  0.95005420  1
  Li  Li20  1  0.05812860  0.89166700  0.15005420  1
  Li  Li21  1  0.05812860  0.89166700  0.35005420  1
  Li  Li22  1  0.05812860  0.89166700  0.55005420  1
  Li  Li23  1  0.05812860  0.89166700  0.75005420  1
  Li  Li24  1  0.05812860  0.89166700  0.95005420  1
  Li  Li25  1  0.25812860  0.09166700  0.15005420  1
  Li  Li26  1  0.25812860  0.09166700  0.35005420  1
  Li  Li27  1  0.25812860  0.09166700  0.55005420  1
  Li  Li28  1  0.25812860  0.09166700  0.75005420  1
  Li  Li29  1  0.25812860  0.09166700  0.95005420  1
  Li  Li30  1  0.25812860  0.29166700  0.15005420  1
  Li  Li31  1  0.25812860  0.29166700  0.35005420  1
  Li  Li32  1  0.25812860  0.29166700  0.55005420  1
  Li  Li33  1  0.25812860  0.29166700  0.75005420  1
  Li  Li34  1  0.25812860  0.29166700  0.95005420  1
  Li  Li35  1  0.25812860  0.49166700  0.15005420  1
  Li  Li36  1  0.25812860  0.49166700  0.35005420  1
  Li  Li37  1  0.25812860  0.49166700  0.55005420  1
  Li  Li38  1  0.25812860  0.49166700  0.75005420  1
  Li  Li39  1  0.25812860  0.49166700  0.95005420  1
  Li  Li40  1  0.25812860  0.69166700  0.15005420  1
  Li  Li41  1  0.25812860  0.69166700  0.35005420  1
  Li  Li42  1  0.25812860  0.69166700  0.55005420  1
  Li  Li43  1  0.25812860  0.69166700  0.75005420  1
  Li  Li44  1  0.25812860  0.69166700  0.95005420  1
  Li  Li45  1  0.25812860  0.89166700  0.15005420  1
  Li  Li46  1  0.25812860  0.89166700  0.35005420  1
  Li  Li47  1  0.25812860  0.89166700  0.55005420  1
  Li  Li48  1  0.25812860  0.89166700  0.75005420  1
  Li  Li49  1  0.25812860  0.89166700  0.95005420  1
  Li  Li50  1  0.45812860  0.09166700  0.15005420  1
  Li  Li51  1  0.45812860  0.09166700  0.35005420  1
  Li  Li52  1  0.45812860  0.09166700  0.55005420  1
  Li  Li53  1  0.45812860  0.09166700  0.75005420  1
  Li  Li54  1  0.45812860  0.09166700  0.95005420  1
  Li  Li55  1  0.45812860  0.29166700  0.15005420  1
  Li  Li56  1  0.45812860  0.29166700  0.35005420  1
  Li  Li57  1  0.45812860  0.29166700  0.55005420  1
  Li  Li58  1  0.45812860  0.29166700  0.75005420  1
  Li  Li59  1  0.45812860  0.29166700  0.95005420  1
  Li  Li60  1  0.45812860  0.49166700  0.15005420  1
  Li  Li61  1  0.45812860  0.49166700  0.35005420  1
  Li  Li62  1  0.45812860  0.49166700  0.55005420  1
  Li  Li63  1  0.45812860  0.49166700  0.75005420  1
  Li  Li64  1  0.45812860  0.49166700  0.95005420  1
  Li  Li65  1  0.45812860  0.69166700  0.15005420  1
  Li  Li66  1  0.45812860  0.69166700  0.35005420  1
  Li  Li67  1  0.45812860  0.69166700  0.55005420  1
  Li  Li68  1  0.45812860  0.69166700  0.75005420  1
  Li  Li69  1  0.45812860  0.69166700  0.95005420  1
  Li  Li70  1  0.45812860  0.89166700  0.15005420  1
  Li  Li71  1  0.45812860  0.89166700  0.35005420  1
  Li  Li72  1  0.45812860  0.89166700  0.55005420  1
  Li  Li73  1  0.45812860  0.89166700  0.75005420  1
  Li  Li74  1  0.45812860  0.89166700  0.95005420  1
  Li  Li75  1  0.65812860  0.09166700  0.15005420  1
  Li  Li76  1  0.65812860  0.09166700  0.35005420  1
  Li  Li77  1  0.65812860  0.09166700  0.55005420  1
  Li  Li78  1  0.65812860  0.09166700  0.75005420  1
  Li  Li79  1  0.65812860  0.09166700  0.95005420  1
  Li  Li80  1  0.65812860  0.29166700  0.15005420  1
  Li  Li81  1  0.65812860  0.29166700  0.35005420  1
  Li  Li82  1  0.65812860  0.29166700  0.55005420  1
  Li  Li83  1  0.65812860  0.29166700  0.75005420  1
  Li  Li84  1  0.65812860  0.29166700  0.95005420  1
  Li  Li85  1  0.65812860  0.49166700  0.15005420  1
  Li  Li86  1  0.65812860  0.49166700  0.35005420  1
  Li  Li87  1  0.65812860  0.49166700  0.55005420  1
  Li  Li88  1  0.65812860  0.49166700  0.75005420  1
  Li  Li89  1  0.65812860  0.49166700  0.95005420  1
  Li  Li90  1  0.65812860  0.69166700  0.15005420  1
  Li  Li91  1  0.65812860  0.69166700  0.35005420  1
  Li  Li92  1  0.65812860  0.69166700  0.55005420  1
  Li  Li93  1  0.65812860  0.69166700  0.75005420  1
  Li  Li94  1  0.65812860  0.69166700  0.95005420  1
  Li  Li95  1  0.65812860  0.89166700  0.15005420  1
  Li  Li96  1  0.65812860  0.89166700  0.35005420  1
  Li  Li97  1  0.65812860  0.89166700  0.55005420  1
  Li  Li98  1  0.65812860  0.89166700  0.75005420  1
  Li  Li99  1  0.65812860  0.89166700  0.95005420  1
  Li  Li100  1  0.85812860  0.09166700  0.15005420  1
  Li  Li101  1  0.85812860  0.09166700  0.35005420  1
  Li  Li102  1  0.85812860  0.09166700  0.55005420  1
  Li  Li103  1  0.85812860  0.09166700  0.75005420  1
  Li  Li104  1  0.85812860  0.09166700  0.95005420  1
  Li  Li105  1  0.85812860  0.29166700  0.15005420  1
  Li  Li106  1  0.85812860  0.29166700  0.35005420  1
  Li  Li107  1  0.85812860  0.29166700  0.55005420  1
  Li  Li108  1  0.85812860  0.29166700  0.75005420  1
  Li  Li109  1  0.85812860  0.29166700  0.95005420  1
  Li  Li110  1  0.85812860  0.49166700  0.15005420  1
  Li  Li111  1  0.85812860  0.49166700  0.35005420  1
  Li  Li112  1  0.85812860  0.49166700  0.55005420  1
  Li  Li113  1  0.85812860  0.49166700  0.75005420  1
  Li  Li114  1  0.85812860  0.49166700  0.95005420  1
  Li  Li115  1  0.85812860  0.69166700  0.15005420  1
  Li  Li116  1  0.85812860  0.69166700  0.35005420  1
  Li  Li117  1  0.85812860  0.69166700  0.55005420  1
  Li  Li118  1  0.85812860  0.69166700  0.75005420  1
  Li  Li119  1  0.85812860  0.69166700  0.95005420  1
  Li  Li120  1  0.85812860  0.89166700  0.15005420  1
  Li  Li121  1  0.85812860  0.89166700  0.35005420  1
  Li  Li122  1  0.85812860  0.89166700  0.55005420  1
  Li  Li123  1  0.85812860  0.89166700  0.75005420  1
  Li  Li124  1  0.85812860  0.89166700  0.95005420  1
  Li  Li125  1  0.15812900  0.19166820  0.15005400  1
  Li  Li126  1  0.15812900  0.19166820  0.35005400  1
  Li  Li127  1  0.15812900  0.19166820  0.55005400  1
  Li  Li128  1  0.15812900  0.19166820  0.75005400  1
  Li  Li129  1  0.15812900  0.19166820  0.95005400  1
  Li  Li130  1  0.15812900  0.39166820  0.15005400  1
  Li  Li131  1  0.15812900  0.39166820  0.35005400  1
  Li  Li132  1  0.15812900  0.39166820  0.55005400  1
  Li  Li133  1  0.15812900  0.39166820  0.75005400  1
  Li  Li134  1  0.15812900  0.39166820  0.95005400  1
  Li  Li135  1  0.15812900  0.59166820  0.15005400  1
  Li  Li136  1  0.15812900  0.59166820  0.35005400  1
  Li  Li137  1  0.15812900  0.59166820  0.55005400  1
  Li  Li138  1  0.15812900  0.59166820  0.75005400  1
  Li  Li139  1  0.15812900  0.59166820  0.95005400  1
  Li  Li140  1  0.15812900  0.79166820  0.15005400  1
  Li  Li141  1  0.15812900  0.79166820  0.35005400  1
  Li  Li142  1  0.15812900  0.79166820  0.55005400  1
  Li  Li143  1  0.15812900  0.79166820  0.75005400  1
  Li  Li144  1  0.15812900  0.79166820  0.95005400  1
  Li  Li145  1  0.15812900  0.99166820  0.15005400  1
  Li  Li146  1  0.15812900  0.99166820  0.35005400  1
  Li  Li147  1  0.15812900  0.99166820  0.55005400  1
  Li  Li148  1  0.15812900  0.99166820  0.75005400  1
  Li  Li149  1  0.15812900  0.99166820  0.95005400  1
  Li  Li150  1  0.35812900  0.19166820  0.15005400  1
  Li  Li151  1  0.35812900  0.19166820  0.35005400  1
  Li  Li152  1  0.35812900  0.19166820  0.55005400  1
  Li  Li153  1  0.35812900  0.19166820  0.75005400  1
  Li  Li154  1  0.35812900  0.19166820  0.95005400  1
  Li  Li155  1  0.35812900  0.39166820  0.15005400  1
  Li  Li156  1  0.35812900  0.39166820  0.35005400  1
  Li  Li157  1  0.35812900  0.39166820  0.55005400  1
  Li  Li158  1  0.35812900  0.39166820  0.75005400  1
  Li  Li159  1  0.35812900  0.39166820  0.95005400  1
  Li  Li160  1  0.35812900  0.59166820  0.15005400  1
  Li  Li161  1  0.35812900  0.59166820  0.35005400  1
  Li  Li162  1  0.35812900  0.59166820  0.55005400  1
  Li  Li163  1  0.35812900  0.59166820  0.75005400  1
  Li  Li164  1  0.35812900  0.59166820  0.95005400  1
  Li  Li165  1  0.35812900  0.79166820  0.15005400  1
  Li  Li166  1  0.35812900  0.79166820  0.35005400  1
  Li  Li167  1  0.35812900  0.79166820  0.55005400  1
  Li  Li168  1  0.35812900  0.79166820  0.75005400  1
  Li  Li169  1  0.35812900  0.79166820  0.95005400  1
  Li  Li170  1  0.35812900  0.99166820  0.15005400  1
  Li  Li171  1  0.35812900  0.99166820  0.35005400  1
  Li  Li172  1  0.35812900  0.99166820  0.55005400  1
  Li  Li173  1  0.35812900  0.99166820  0.75005400  1
  Li  Li174  1  0.35812900  0.99166820  0.95005400  1
  Li  Li175  1  0.55812900  0.19166820  0.15005400  1
  Li  Li176  1  0.55812900  0.19166820  0.35005400  1
  Li  Li177  1  0.55812900  0.19166820  0.55005400  1
  Li  Li178  1  0.55812900  0.19166820  0.75005400  1
  Li  Li179  1  0.55812900  0.19166820  0.95005400  1
  Li  Li180  1  0.55812900  0.39166820  0.15005400  1
  Li  Li181  1  0.55812900  0.39166820  0.35005400  1
  Li  Li182  1  0.55812900  0.39166820  0.55005400  1
  Li  Li183  1  0.55812900  0.39166820  0.75005400  1
  Li  Li184  1  0.55812900  0.39166820  0.95005400  1
  Li  Li185  1  0.55812900  0.59166820  0.15005400  1
  Li  Li186  1  0.55812900  0.59166820  0.35005400  1
  Li  Li187  1  0.55812900  0.59166820  0.55005400  1
  Li  Li188  1  0.55812900  0.59166820  0.75005400  1
  Li  Li189  1  0.55812900  0.59166820  0.95005400  1
  Li  Li190  1  0.55812900  0.79166820  0.15005400  1
  Li  Li191  1  0.55812900  0.79166820  0.35005400  1
  Li  Li192  1  0.55812900  0.79166820  0.55005400  1
  Li  Li193  1  0.55812900  0.79166820  0.75005400  1
  Li  Li194  1  0.55812900  0.79166820  0.95005400  1
  Li  Li195  1  0.55812900  0.99166820  0.15005400  1
  Li  Li196  1  0.55812900  0.99166820  0.35005400  1
  Li  Li197  1  0.55812900  0.99166820  0.55005400  1
  Li  Li198  1  0.55812900  0.99166820  0.75005400  1
  Li  Li199  1  0.55812900  0.99166820  0.95005400  1
  Li  Li200  1  0.75812900  0.19166820  0.15005400  1
  Li  Li201  1  0.75812900  0.19166820  0.35005400  1
  Li  Li202  1  0.75812900  0.19166820  0.55005400  1
  Li  Li203  1  0.75812900  0.19166820  0.75005400  1
  Li  Li204  1  0.75812900  0.19166820  0.95005400  1
  Li  Li205  1  0.75812900  0.39166820  0.15005400  1
  Li  Li206  1  0.75812900  0.39166820  0.35005400  1
  Li  Li207  1  0.75812900  0.39166820  0.55005400  1
  Li  Li208  1  0.75812900  0.39166820  0.75005400  1
  Li  Li209  1  0.75812900  0.39166820  0.95005400  1
  Li  Li210  1  0.75812900  0.59166820  0.15005400  1
  Li  Li211  1  0.75812900  0.59166820  0.35005400  1
  Li  Li212  1  0.75812900  0.59166820  0.55005400  1
  Li  Li213  1  0.75812900  0.59166820  0.75005400  1
  Li  Li214  1  0.75812900  0.59166820  0.95005400  1
  Li  Li215  1  0.75812900  0.79166820  0.15005400  1
  Li  Li216  1  0.75812900  0.79166820  0.35005400  1
  Li  Li217  1  0.75812900  0.79166820  0.55005400  1
  Li  Li218  1  0.75812900  0.79166820  0.75005400  1
  Li  Li219  1  0.75812900  0.79166820  0.95005400  1
  Li  Li220  1  0.75812900  0.99166820  0.15005400  1
  Li  Li221  1  0.75812900  0.99166820  0.35005400  1
  Li  Li222  1  0.75812900  0.99166820  0.55005400  1
  Li  Li223  1  0.75812900  0.99166820  0.75005400  1
  Li  Li224  1  0.75812900  0.99166820  0.95005400  1
  Li  Li225  1  0.95812900  0.19166820  0.15005400  1
  Li  Li226  1  0.95812900  0.19166820  0.35005400  1
  Li  Li227  1  0.95812900  0.19166820  0.55005400  1
  Li  Li228  1  0.95812900  0.19166820  0.75005400  1
  Li  Li229  1  0.95812900  0.19166820  0.95005400  1
  Li  Li230  1  0.95812900  0.39166820  0.15005400  1
  Li  Li231  1  0.95812900  0.39166820  0.35005400  1
  Li  Li232  1  0.95812900  0.39166820  0.55005400  1
  Li  Li233  1  0.95812900  0.39166820  0.75005400  1
  Li  Li234  1  0.95812900  0.39166820  0.95005400  1
  Li  Li235  1  0.95812900  0.59166820  0.15005400  1
  Li  Li236  1  0.95812900  0.59166820  0.35005400  1
  Li  Li237  1  0.95812900  0.59166820  0.55005400  1
  Li  Li238  1  0.95812900  0.59166820  0.75005400  1
  Li  Li239  1  0.95812900  0.59166820  0.95005400  1
  Li  Li240  1  0.95812900  0.79166820  0.15005400  1
  Li  Li241  1  0.95812900  0.79166820  0.35005400  1
  Li  Li242  1  0.95812900  0.79166820  0.55005400  1
  Li  Li243  1  0.95812900  0.79166820  0.75005400  1
  Li  Li244  1  0.95812900  0.79166820  0.95005400  1
  Li  Li245  1  0.95812900  0.99166820  0.15005400  1
  Li  Li246  1  0.95812900  0.99166820  0.35005400  1
  Li  Li247  1  0.95812900  0.99166820  0.55005400  1
  Li  Li248  1  0.95812900  0.99166820  0.75005400  1
  Li  Li249  1  0.95812900  0.99166820  0.95005400  1
  Li  Li250  1  0.04171900  0.00818360  0.14994980  1
  Li  Li251  1  0.04171900  0.00818360  0.34994980  1
  Li  Li252  1  0.04171900  0.00818360  0.54994980  1
  Li  Li253  1  0.04171900  0.00818360  0.74994980  1
  Li  Li254  1  0.04171900  0.00818360  0.94994980  1
  Li  Li255  1  0.04171900  0.20818360  0.14994980  1
  Li  Li256  1  0.04171900  0.20818360  0.34994980  1
  Li  Li257  1  0.04171900  0.20818360  0.54994980  1
  Li  Li258  1  0.04171900  0.20818360  0.74994980  1
  Li  Li259  1  0.04171900  0.20818360  0.94994980  1
  Li  Li260  1  0.04171900  0.40818360  0.14994980  1
  Li  Li261  1  0.04171900  0.40818360  0.34994980  1
  Li  Li262  1  0.04171900  0.40818360  0.54994980  1
  Li  Li263  1  0.04171900  0.40818360  0.74994980  1
  Li  Li264  1  0.04171900  0.40818360  0.94994980  1
  Li  Li265  1  0.04171900  0.60818360  0.14994980  1
  Li  Li266  1  0.04171900  0.60818360  0.34994980  1
  Li  Li267  1  0.04171900  0.60818360  0.54994980  1
  Li  Li268  1  0.04171900  0.60818360  0.74994980  1
  Li  Li269  1  0.04171900  0.60818360  0.94994980  1
  Li  Li270  1  0.04171900  0.80818360  0.14994980  1
  Li  Li271  1  0.04171900  0.80818360  0.34994980  1
  Li  Li272  1  0.04171900  0.80818360  0.54994980  1
  Li  Li273  1  0.04171900  0.80818360  0.74994980  1
  Li  Li274  1  0.04171900  0.80818360  0.94994980  1
  Li  Li275  1  0.24171900  0.00818360  0.14994980  1
  Li  Li276  1  0.24171900  0.00818360  0.34994980  1
  Li  Li277  1  0.24171900  0.00818360  0.54994980  1
  Li  Li278  1  0.24171900  0.00818360  0.74994980  1
  Li  Li279  1  0.24171900  0.00818360  0.94994980  1
  Li  Li280  1  0.24171900  0.20818360  0.14994980  1
  Li  Li281  1  0.24171900  0.20818360  0.34994980  1
  Li  Li282  1  0.24171900  0.20818360  0.54994980  1
  Li  Li283  1  0.24171900  0.20818360  0.74994980  1
  Li  Li284  1  0.24171900  0.20818360  0.94994980  1
  Li  Li285  1  0.24171900  0.40818360  0.14994980  1
  Li  Li286  1  0.24171900  0.40818360  0.34994980  1
  Li  Li287  1  0.24171900  0.40818360  0.54994980  1
  Li  Li288  1  0.24171900  0.40818360  0.74994980  1
  Li  Li289  1  0.24171900  0.40818360  0.94994980  1
  Li  Li290  1  0.24171900  0.60818360  0.14994980  1
  Li  Li291  1  0.24171900  0.60818360  0.34994980  1
  Li  Li292  1  0.24171900  0.60818360  0.54994980  1
  Li  Li293  1  0.24171900  0.60818360  0.74994980  1
  Li  Li294  1  0.24171900  0.60818360  0.94994980  1
  Li  Li295  1  0.24171900  0.80818360  0.14994980  1
  Li  Li296  1  0.24171900  0.80818360  0.34994980  1
  Li  Li297  1  0.24171900  0.80818360  0.54994980  1
  Li  Li298  1  0.24171900  0.80818360  0.74994980  1
  Li  Li299  1  0.24171900  0.80818360  0.94994980  1
  Li  Li300  1  0.44171900  0.00818360  0.14994980  1
  Li  Li301  1  0.44171900  0.00818360  0.34994980  1
  Li  Li302  1  0.44171900  0.00818360  0.54994980  1
  Li  Li303  1  0.44171900  0.00818360  0.74994980  1
  Li  Li304  1  0.44171900  0.00818360  0.94994980  1
  Li  Li305  1  0.44171900  0.20818360  0.14994980  1
  Li  Li306  1  0.44171900  0.20818360  0.34994980  1
  Li  Li307  1  0.44171900  0.20818360  0.54994980  1
  Li  Li308  1  0.44171900  0.20818360  0.74994980  1
  Li  Li309  1  0.44171900  0.20818360  0.94994980  1
  Li  Li310  1  0.44171900  0.40818360  0.14994980  1
  Li  Li311  1  0.44171900  0.40818360  0.34994980  1
  Li  Li312  1  0.44171900  0.40818360  0.54994980  1
  Li  Li313  1  0.44171900  0.40818360  0.74994980  1
  Li  Li314  1  0.44171900  0.40818360  0.94994980  1
  Li  Li315  1  0.44171900  0.60818360  0.14994980  1
  Li  Li316  1  0.44171900  0.60818360  0.34994980  1
  Li  Li317  1  0.44171900  0.60818360  0.54994980  1
  Li  Li318  1  0.44171900  0.60818360  0.74994980  1
  Li  Li319  1  0.44171900  0.60818360  0.94994980  1
  Li  Li320  1  0.44171900  0.80818360  0.14994980  1
  Li  Li321  1  0.44171900  0.80818360  0.34994980  1
  Li  Li322  1  0.44171900  0.80818360  0.54994980  1
  Li  Li323  1  0.44171900  0.80818360  0.74994980  1
  Li  Li324  1  0.44171900  0.80818360  0.94994980  1
  Li  Li325  1  0.64171900  0.00818360  0.14994980  1
  Li  Li326  1  0.64171900  0.00818360  0.34994980  1
  Li  Li327  1  0.64171900  0.00818360  0.54994980  1
  Li  Li328  1  0.64171900  0.00818360  0.74994980  1
  Li  Li329  1  0.64171900  0.00818360  0.94994980  1
  Li  Li330  1  0.64171900  0.20818360  0.14994980  1
  Li  Li331  1  0.64171900  0.20818360  0.34994980  1
  Li  Li332  1  0.64171900  0.20818360  0.54994980  1
  Li  Li333  1  0.64171900  0.20818360  0.74994980  1
  Li  Li334  1  0.64171900  0.20818360  0.94994980  1
  Li  Li335  1  0.64171900  0.40818360  0.14994980  1
  Li  Li336  1  0.64171900  0.40818360  0.34994980  1
  Li  Li337  1  0.64171900  0.40818360  0.54994980  1
  Li  Li338  1  0.64171900  0.40818360  0.74994980  1
  Li  Li339  1  0.64171900  0.40818360  0.94994980  1
  Li  Li340  1  0.64171900  0.60818360  0.14994980  1
  Li  Li341  1  0.64171900  0.60818360  0.34994980  1
  Li  Li342  1  0.64171900  0.60818360  0.54994980  1
  Li  Li343  1  0.64171900  0.60818360  0.74994980  1
  Li  Li344  1  0.64171900  0.60818360  0.94994980  1
  Li  Li345  1  0.64171900  0.80818360  0.14994980  1
  Li  Li346  1  0.64171900  0.80818360  0.34994980  1
  Li  Li347  1  0.64171900  0.80818360  0.54994980  1
  Li  Li348  1  0.64171900  0.80818360  0.74994980  1
  Li  Li349  1  0.64171900  0.80818360  0.94994980  1
  Li  Li350  1  0.84171900  0.00818360  0.14994980  1
  Li  Li351  1  0.84171900  0.00818360  0.34994980  1
  Li  Li352  1  0.84171900  0.00818360  0.54994980  1
  Li  Li353  1  0.84171900  0.00818360  0.74994980  1
  Li  Li354  1  0.84171900  0.00818360  0.94994980  1
  Li  Li355  1  0.84171900  0.20818360  0.14994980  1
  Li  Li356  1  0.84171900  0.20818360  0.34994980  1
  Li  Li357  1  0.84171900  0.20818360  0.54994980  1
  Li  Li358  1  0.84171900  0.20818360  0.74994980  1
  Li  Li359  1  0.84171900  0.20818360  0.94994980  1
  Li  Li360  1  0.84171900  0.40818360  0.14994980  1
  Li  Li361  1  0.84171900  0.40818360  0.34994980  1
  Li  Li362  1  0.84171900  0.40818360  0.54994980  1
  Li  Li363  1  0.84171900  0.40818360  0.74994980  1
  Li  Li364  1  0.84171900  0.40818360  0.94994980  1
  Li  Li365  1  0.84171900  0.60818360  0.14994980  1
  Li  Li366  1  0.84171900  0.60818360  0.34994980  1
  Li  Li367  1  0.84171900  0.60818360  0.54994980  1
  Li  Li368  1  0.84171900  0.60818360  0.74994980  1
  Li  Li369  1  0.84171900  0.60818360  0.94994980  1
  Li  Li370  1  0.84171900  0.80818360  0.14994980  1
  Li  Li371  1  0.84171900  0.80818360  0.34994980  1
  Li  Li372  1  0.84171900  0.80818360  0.54994980  1
  Li  Li373  1  0.84171900  0.80818360  0.74994980  1
  Li  Li374  1  0.84171900  0.80818360  0.94994980  1
  Li  Li375  1  0.14171920  0.10818280  0.14995000  1
  Li  Li376  1  0.14171920  0.10818280  0.34995000  1
  Li  Li377  1  0.14171920  0.10818280  0.54995000  1
  Li  Li378  1  0.14171920  0.10818280  0.74995000  1
  Li  Li379  1  0.14171920  0.10818280  0.94995000  1
  Li  Li380  1  0.14171920  0.30818280  0.14995000  1
  Li  Li381  1  0.14171920  0.30818280  0.34995000  1
  Li  Li382  1  0.14171920  0.30818280  0.54995000  1
  Li  Li383  1  0.14171920  0.30818280  0.74995000  1
  Li  Li384  1  0.14171920  0.30818280  0.94995000  1
  Li  Li385  1  0.14171920  0.50818280  0.14995000  1
  Li  Li386  1  0.14171920  0.50818280  0.34995000  1
  Li  Li387  1  0.14171920  0.50818280  0.54995000  1
  Li  Li388  1  0.14171920  0.50818280  0.74995000  1
  Li  Li389  1  0.14171920  0.50818280  0.94995000  1
  Li  Li390  1  0.14171920  0.70818280  0.14995000  1
  Li  Li391  1  0.14171920  0.70818280  0.34995000  1
  Li  Li392  1  0.14171920  0.70818280  0.54995000  1
  Li  Li393  1  0.14171920  0.70818280  0.74995000  1
  Li  Li394  1  0.14171920  0.70818280  0.94995000  1
  Li  Li395  1  0.14171920  0.90818280  0.14995000  1
  Li  Li396  1  0.14171920  0.90818280  0.34995000  1
  Li  Li397  1  0.14171920  0.90818280  0.54995000  1
  Li  Li398  1  0.14171920  0.90818280  0.74995000  1
  Li  Li399  1  0.14171920  0.90818280  0.94995000  1
  Li  Li400  1  0.34171920  0.10818280  0.14995000  1
  Li  Li401  1  0.34171920  0.10818280  0.34995000  1
  Li  Li402  1  0.34171920  0.10818280  0.54995000  1
  Li  Li403  1  0.34171920  0.10818280  0.74995000  1
  Li  Li404  1  0.34171920  0.10818280  0.94995000  1
  Li  Li405  1  0.34171920  0.30818280  0.14995000  1
  Li  Li406  1  0.34171920  0.30818280  0.34995000  1
  Li  Li407  1  0.34171920  0.30818280  0.54995000  1
  Li  Li408  1  0.34171920  0.30818280  0.74995000  1
  Li  Li409  1  0.34171920  0.30818280  0.94995000  1
  Li  Li410  1  0.34171920  0.50818280  0.14995000  1
  Li  Li411  1  0.34171920  0.50818280  0.34995000  1
  Li  Li412  1  0.34171920  0.50818280  0.54995000  1
  Li  Li413  1  0.34171920  0.50818280  0.74995000  1
  Li  Li414  1  0.34171920  0.50818280  0.94995000  1
  Li  Li415  1  0.34171920  0.70818280  0.14995000  1
  Li  Li416  1  0.34171920  0.70818280  0.34995000  1
  Li  Li417  1  0.34171920  0.70818280  0.54995000  1
  Li  Li418  1  0.34171920  0.70818280  0.74995000  1
  Li  Li419  1  0.34171920  0.70818280  0.94995000  1
  Li  Li420  1  0.34171920  0.90818280  0.14995000  1
  Li  Li421  1  0.34171920  0.90818280  0.34995000  1
  Li  Li422  1  0.34171920  0.90818280  0.54995000  1
  Li  Li423  1  0.34171920  0.90818280  0.74995000  1
  Li  Li424  1  0.34171920  0.90818280  0.94995000  1
  Li  Li425  1  0.54171920  0.10818280  0.14995000  1
  Li  Li426  1  0.54171920  0.10818280  0.34995000  1
  Li  Li427  1  0.54171920  0.10818280  0.54995000  1
  Li  Li428  1  0.54171920  0.10818280  0.74995000  1
  Li  Li429  1  0.54171920  0.10818280  0.94995000  1
  Li  Li430  1  0.54171920  0.30818280  0.14995000  1
  Li  Li431  1  0.54171920  0.30818280  0.34995000  1
  Li  Li432  1  0.54171920  0.30818280  0.54995000  1
  Li  Li433  1  0.54171920  0.30818280  0.74995000  1
  Li  Li434  1  0.54171920  0.30818280  0.94995000  1
  Li  Li435  1  0.54171920  0.50818280  0.14995000  1
  Li  Li436  1  0.54171920  0.50818280  0.34995000  1
  Li  Li437  1  0.54171920  0.50818280  0.54995000  1
  Li  Li438  1  0.54171920  0.50818280  0.74995000  1
  Li  Li439  1  0.54171920  0.50818280  0.94995000  1
  Li  Li440  1  0.54171920  0.70818280  0.14995000  1
  Li  Li441  1  0.54171920  0.70818280  0.34995000  1
  Li  Li442  1  0.54171920  0.70818280  0.54995000  1
  Li  Li443  1  0.54171920  0.70818280  0.74995000  1
  Li  Li444  1  0.54171920  0.70818280  0.94995000  1
  Li  Li445  1  0.54171920  0.90818280  0.14995000  1
  Li  Li446  1  0.54171920  0.90818280  0.34995000  1
  Li  Li447  1  0.54171920  0.90818280  0.54995000  1
  Li  Li448  1  0.54171920  0.90818280  0.74995000  1
  Li  Li449  1  0.54171920  0.90818280  0.94995000  1
  Li  Li450  1  0.74171920  0.10818280  0.14995000  1
  Li  Li451  1  0.74171920  0.10818280  0.34995000  1
  Li  Li452  1  0.74171920  0.10818280  0.54995000  1
  Li  Li453  1  0.74171920  0.10818280  0.74995000  1
  Li  Li454  1  0.74171920  0.10818280  0.94995000  1
  Li  Li455  1  0.74171920  0.30818280  0.14995000  1
  Li  Li456  1  0.74171920  0.30818280  0.34995000  1
  Li  Li457  1  0.74171920  0.30818280  0.54995000  1
  Li  Li458  1  0.74171920  0.30818280  0.74995000  1
  Li  Li459  1  0.74171920  0.30818280  0.94995000  1
  Li  Li460  1  0.74171920  0.50818280  0.14995000  1
  Li  Li461  1  0.74171920  0.50818280  0.34995000  1
  Li  Li462  1  0.74171920  0.50818280  0.54995000  1
  Li  Li463  1  0.74171920  0.50818280  0.74995000  1
  Li  Li464  1  0.74171920  0.50818280  0.94995000  1
  Li  Li465  1  0.74171920  0.70818280  0.14995000  1
  Li  Li466  1  0.74171920  0.70818280  0.34995000  1
  Li  Li467  1  0.74171920  0.70818280  0.54995000  1
  Li  Li468  1  0.74171920  0.70818280  0.74995000  1
  Li  Li469  1  0.74171920  0.70818280  0.94995000  1
  Li  Li470  1  0.74171920  0.90818280  0.14995000  1
  Li  Li471  1  0.74171920  0.90818280  0.34995000  1
  Li  Li472  1  0.74171920  0.90818280  0.54995000  1
  Li  Li473  1  0.74171920  0.90818280  0.74995000  1
  Li  Li474  1  0.74171920  0.90818280  0.94995000  1
  Li  Li475  1  0.94171920  0.10818280  0.14995000  1
  Li  Li476  1  0.94171920  0.10818280  0.34995000  1
  Li  Li477  1  0.94171920  0.10818280  0.54995000  1
  Li  Li478  1  0.94171920  0.10818280  0.74995000  1
  Li  Li479  1  0.94171920  0.10818280  0.94995000  1
  Li  Li480  1  0.94171920  0.30818280  0.14995000  1
  Li  Li481  1  0.94171920  0.30818280  0.34995000  1
  Li  Li482  1  0.94171920  0.30818280  0.54995000  1
  Li  Li483  1  0.94171920  0.30818280  0.74995000  1
  Li  Li484  1  0.94171920  0.30818280  0.94995000  1
  Li  Li485  1  0.94171920  0.50818280  0.14995000  1
  Li  Li486  1  0.94171920  0.50818280  0.34995000  1
  Li  Li487  1  0.94171920  0.50818280  0.54995000  1
  Li  Li488  1  0.94171920  0.50818280  0.74995000  1
  Li  Li489  1  0.94171920  0.50818280  0.94995000  1
  Li  Li490  1  0.94171920  0.70818280  0.14995000  1
  Li  Li491  1  0.94171920  0.70818280  0.34995000  1
  Li  Li492  1  0.94171920  0.70818280  0.54995000  1
  Li  Li493  1  0.94171920  0.70818280  0.74995000  1
  Li  Li494  1  0.94171920  0.70818280  0.94995000  1
  Li  Li495  1  0.94171920  0.90818280  0.14995000  1
  Li  Li496  1  0.94171920  0.90818280  0.34995000  1
  Li  Li497  1  0.94171920  0.90818280  0.54995000  1
  Li  Li498  1  0.94171920  0.90818280  0.74995000  1
  Li  Li499  1  0.94171920  0.90818280  0.94995000  1
  Li  Li500  1  0.09166600  0.05812720  0.05005540  1
  Li  Li501  1  0.09166600  0.05812720  0.25005540  1
  Li  Li502  1  0.09166600  0.05812720  0.45005540  1
  Li  Li503  1  0.09166600  0.05812720  0.65005540  1
  Li  Li504  1  0.09166600  0.05812720  0.85005540  1
  Li  Li505  1  0.09166600  0.25812720  0.05005540  1
  Li  Li506  1  0.09166600  0.25812720  0.25005540  1
  Li  Li507  1  0.09166600  0.25812720  0.45005540  1
  Li  Li508  1  0.09166600  0.25812720  0.65005540  1
  Li  Li509  1  0.09166600  0.25812720  0.85005540  1
  Li  Li510  1  0.09166600  0.45812720  0.05005540  1
  Li  Li511  1  0.09166600  0.45812720  0.25005540  1
  Li  Li512  1  0.09166600  0.45812720  0.45005540  1
  Li  Li513  1  0.09166600  0.45812720  0.65005540  1
  Li  Li514  1  0.09166600  0.45812720  0.85005540  1
  Li  Li515  1  0.09166600  0.65812720  0.05005540  1
  Li  Li516  1  0.09166600  0.65812720  0.25005540  1
  Li  Li517  1  0.09166600  0.65812720  0.45005540  1
  Li  Li518  1  0.09166600  0.65812720  0.65005540  1
  Li  Li519  1  0.09166600  0.65812720  0.85005540  1
  Li  Li520  1  0.09166600  0.85812720  0.05005540  1
  Li  Li521  1  0.09166600  0.85812720  0.25005540  1
  Li  Li522  1  0.09166600  0.85812720  0.45005540  1
  Li  Li523  1  0.09166600  0.85812720  0.65005540  1
  Li  Li524  1  0.09166600  0.85812720  0.85005540  1
  Li  Li525  1  0.29166600  0.05812720  0.05005540  1
  Li  Li526  1  0.29166600  0.05812720  0.25005540  1
  Li  Li527  1  0.29166600  0.05812720  0.45005540  1
  Li  Li528  1  0.29166600  0.05812720  0.65005540  1
  Li  Li529  1  0.29166600  0.05812720  0.85005540  1
  Li  Li530  1  0.29166600  0.25812720  0.05005540  1
  Li  Li531  1  0.29166600  0.25812720  0.25005540  1
  Li  Li532  1  0.29166600  0.25812720  0.45005540  1
  Li  Li533  1  0.29166600  0.25812720  0.65005540  1
  Li  Li534  1  0.29166600  0.25812720  0.85005540  1
  Li  Li535  1  0.29166600  0.45812720  0.05005540  1
  Li  Li536  1  0.29166600  0.45812720  0.25005540  1
  Li  Li537  1  0.29166600  0.45812720  0.45005540  1
  Li  Li538  1  0.29166600  0.45812720  0.65005540  1
  Li  Li539  1  0.29166600  0.45812720  0.85005540  1
  Li  Li540  1  0.29166600  0.65812720  0.05005540  1
  Li  Li541  1  0.29166600  0.65812720  0.25005540  1
  Li  Li542  1  0.29166600  0.65812720  0.45005540  1
  Li  Li543  1  0.29166600  0.65812720  0.65005540  1
  Li  Li544  1  0.29166600  0.65812720  0.85005540  1
  Li  Li545  1  0.29166600  0.85812720  0.05005540  1
  Li  Li546  1  0.29166600  0.85812720  0.25005540  1
  Li  Li547  1  0.29166600  0.85812720  0.45005540  1
  Li  Li548  1  0.29166600  0.85812720  0.65005540  1
  Li  Li549  1  0.29166600  0.85812720  0.85005540  1
  Li  Li550  1  0.49166600  0.05812720  0.05005540  1
  Li  Li551  1  0.49166600  0.05812720  0.25005540  1
  Li  Li552  1  0.49166600  0.05812720  0.45005540  1
  Li  Li553  1  0.49166600  0.05812720  0.65005540  1
  Li  Li554  1  0.49166600  0.05812720  0.85005540  1
  Li  Li555  1  0.49166600  0.25812720  0.05005540  1
  Li  Li556  1  0.49166600  0.25812720  0.25005540  1
  Li  Li557  1  0.49166600  0.25812720  0.45005540  1
  Li  Li558  1  0.49166600  0.25812720  0.65005540  1
  Li  Li559  1  0.49166600  0.25812720  0.85005540  1
  Li  Li560  1  0.49166600  0.45812720  0.05005540  1
  Li  Li561  1  0.49166600  0.45812720  0.25005540  1
  Li  Li562  1  0.49166600  0.45812720  0.45005540  1
  Li  Li563  1  0.49166600  0.45812720  0.65005540  1
  Li  Li564  1  0.49166600  0.45812720  0.85005540  1
  Li  Li565  1  0.49166600  0.65812720  0.05005540  1
  Li  Li566  1  0.49166600  0.65812720  0.25005540  1
  Li  Li567  1  0.49166600  0.65812720  0.45005540  1
  Li  Li568  1  0.49166600  0.65812720  0.65005540  1
  Li  Li569  1  0.49166600  0.65812720  0.85005540  1
  Li  Li570  1  0.49166600  0.85812720  0.05005540  1
  Li  Li571  1  0.49166600  0.85812720  0.25005540  1
  Li  Li572  1  0.49166600  0.85812720  0.45005540  1
  Li  Li573  1  0.49166600  0.85812720  0.65005540  1
  Li  Li574  1  0.49166600  0.85812720  0.85005540  1
  Li  Li575  1  0.69166600  0.05812720  0.05005540  1
  Li  Li576  1  0.69166600  0.05812720  0.25005540  1
  Li  Li577  1  0.69166600  0.05812720  0.45005540  1
  Li  Li578  1  0.69166600  0.05812720  0.65005540  1
  Li  Li579  1  0.69166600  0.05812720  0.85005540  1
  Li  Li580  1  0.69166600  0.25812720  0.05005540  1
  Li  Li581  1  0.69166600  0.25812720  0.25005540  1
  Li  Li582  1  0.69166600  0.25812720  0.45005540  1
  Li  Li583  1  0.69166600  0.25812720  0.65005540  1
  Li  Li584  1  0.69166600  0.25812720  0.85005540  1
  Li  Li585  1  0.69166600  0.45812720  0.05005540  1
  Li  Li586  1  0.69166600  0.45812720  0.25005540  1
  Li  Li587  1  0.69166600  0.45812720  0.45005540  1
  Li  Li588  1  0.69166600  0.45812720  0.65005540  1
  Li  Li589  1  0.69166600  0.45812720  0.85005540  1
  Li  Li590  1  0.69166600  0.65812720  0.05005540  1
  Li  Li591  1  0.69166600  0.65812720  0.25005540  1
  Li  Li592  1  0.69166600  0.65812720  0.45005540  1
  Li  Li593  1  0.69166600  0.65812720  0.65005540  1
  Li  Li594  1  0.69166600  0.65812720  0.85005540  1
  Li  Li595  1  0.69166600  0.85812720  0.05005540  1
  Li  Li596  1  0.69166600  0.85812720  0.25005540  1
  Li  Li597  1  0.69166600  0.85812720  0.45005540  1
  Li  Li598  1  0.69166600  0.85812720  0.65005540  1
  Li  Li599  1  0.69166600  0.85812720  0.85005540  1
  Li  Li600  1  0.89166600  0.05812720  0.05005540  1
  Li  Li601  1  0.89166600  0.05812720  0.25005540  1
  Li  Li602  1  0.89166600  0.05812720  0.45005540  1
  Li  Li603  1  0.89166600  0.05812720  0.65005540  1
  Li  Li604  1  0.89166600  0.05812720  0.85005540  1
  Li  Li605  1  0.89166600  0.25812720  0.05005540  1
  Li  Li606  1  0.89166600  0.25812720  0.25005540  1
  Li  Li607  1  0.89166600  0.25812720  0.45005540  1
  Li  Li608  1  0.89166600  0.25812720  0.65005540  1
  Li  Li609  1  0.89166600  0.25812720  0.85005540  1
  Li  Li610  1  0.89166600  0.45812720  0.05005540  1
  Li  Li611  1  0.89166600  0.45812720  0.25005540  1
  Li  Li612  1  0.89166600  0.45812720  0.45005540  1
  Li  Li613  1  0.89166600  0.45812720  0.65005540  1
  Li  Li614  1  0.89166600  0.45812720  0.85005540  1
  Li  Li615  1  0.89166600  0.65812720  0.05005540  1
  Li  Li616  1  0.89166600  0.65812720  0.25005540  1
  Li  Li617  1  0.89166600  0.65812720  0.45005540  1
  Li  Li618  1  0.89166600  0.65812720  0.65005540  1
  Li  Li619  1  0.89166600  0.65812720  0.85005540  1
  Li  Li620  1  0.89166600  0.85812720  0.05005540  1
  Li  Li621  1  0.89166600  0.85812720  0.25005540  1
  Li  Li622  1  0.89166600  0.85812720  0.45005540  1
  Li  Li623  1  0.89166600  0.85812720  0.65005540  1
  Li  Li624  1  0.89166600  0.85812720  0.85005540  1
  Li  Li625  1  0.19166760  0.15812740  0.05005400  1
  Li  Li626  1  0.19166760  0.15812740  0.25005400  1
  Li  Li627  1  0.19166760  0.15812740  0.45005400  1
  Li  Li628  1  0.19166760  0.15812740  0.65005400  1
  Li  Li629  1  0.19166760  0.15812740  0.85005400  1
  Li  Li630  1  0.19166760  0.35812740  0.05005400  1
  Li  Li631  1  0.19166760  0.35812740  0.25005400  1
  Li  Li632  1  0.19166760  0.35812740  0.45005400  1
  Li  Li633  1  0.19166760  0.35812740  0.65005400  1
  Li  Li634  1  0.19166760  0.35812740  0.85005400  1
  Li  Li635  1  0.19166760  0.55812740  0.05005400  1
  Li  Li636  1  0.19166760  0.55812740  0.25005400  1
  Li  Li637  1  0.19166760  0.55812740  0.45005400  1
  Li  Li638  1  0.19166760  0.55812740  0.65005400  1
  Li  Li639  1  0.19166760  0.55812740  0.85005400  1
  Li  Li640  1  0.19166760  0.75812740  0.05005400  1
  Li  Li641  1  0.19166760  0.75812740  0.25005400  1
  Li  Li642  1  0.19166760  0.75812740  0.45005400  1
  Li  Li643  1  0.19166760  0.75812740  0.65005400  1
  Li  Li644  1  0.19166760  0.75812740  0.85005400  1
  Li  Li645  1  0.19166760  0.95812740  0.05005400  1
  Li  Li646  1  0.19166760  0.95812740  0.25005400  1
  Li  Li647  1  0.19166760  0.95812740  0.45005400  1
  Li  Li648  1  0.19166760  0.95812740  0.65005400  1
  Li  Li649  1  0.19166760  0.95812740  0.85005400  1
  Li  Li650  1  0.39166760  0.15812740  0.05005400  1
  Li  Li651  1  0.39166760  0.15812740  0.25005400  1
  Li  Li652  1  0.39166760  0.15812740  0.45005400  1
  Li  Li653  1  0.39166760  0.15812740  0.65005400  1
  Li  Li654  1  0.39166760  0.15812740  0.85005400  1
  Li  Li655  1  0.39166760  0.35812740  0.05005400  1
  Li  Li656  1  0.39166760  0.35812740  0.25005400  1
  Li  Li657  1  0.39166760  0.35812740  0.45005400  1
  Li  Li658  1  0.39166760  0.35812740  0.65005400  1
  Li  Li659  1  0.39166760  0.35812740  0.85005400  1
  Li  Li660  1  0.39166760  0.55812740  0.05005400  1
  Li  Li661  1  0.39166760  0.55812740  0.25005400  1
  Li  Li662  1  0.39166760  0.55812740  0.45005400  1
  Li  Li663  1  0.39166760  0.55812740  0.65005400  1
  Li  Li664  1  0.39166760  0.55812740  0.85005400  1
  Li  Li665  1  0.39166760  0.75812740  0.05005400  1
  Li  Li666  1  0.39166760  0.75812740  0.25005400  1
  Li  Li667  1  0.39166760  0.75812740  0.45005400  1
  Li  Li668  1  0.39166760  0.75812740  0.65005400  1
  Li  Li669  1  0.39166760  0.75812740  0.85005400  1
  Li  Li670  1  0.39166760  0.95812740  0.05005400  1
  Li  Li671  1  0.39166760  0.95812740  0.25005400  1
  Li  Li672  1  0.39166760  0.95812740  0.45005400  1
  Li  Li673  1  0.39166760  0.95812740  0.65005400  1
  Li  Li674  1  0.39166760  0.95812740  0.85005400  1
  Li  Li675  1  0.59166760  0.15812740  0.05005400  1
  Li  Li676  1  0.59166760  0.15812740  0.25005400  1
  Li  Li677  1  0.59166760  0.15812740  0.45005400  1
  Li  Li678  1  0.59166760  0.15812740  0.65005400  1
  Li  Li679  1  0.59166760  0.15812740  0.85005400  1
  Li  Li680  1  0.59166760  0.35812740  0.05005400  1
  Li  Li681  1  0.59166760  0.35812740  0.25005400  1
  Li  Li682  1  0.59166760  0.35812740  0.45005400  1
  Li  Li683  1  0.59166760  0.35812740  0.65005400  1
  Li  Li684  1  0.59166760  0.35812740  0.85005400  1
  Li  Li685  1  0.59166760  0.55812740  0.05005400  1
  Li  Li686  1  0.59166760  0.55812740  0.25005400  1
  Li  Li687  1  0.59166760  0.55812740  0.45005400  1
  Li  Li688  1  0.59166760  0.55812740  0.65005400  1
  Li  Li689  1  0.59166760  0.55812740  0.85005400  1
  Li  Li690  1  0.59166760  0.75812740  0.05005400  1
  Li  Li691  1  0.59166760  0.75812740  0.25005400  1
  Li  Li692  1  0.59166760  0.75812740  0.45005400  1
  Li  Li693  1  0.59166760  0.75812740  0.65005400  1
  Li  Li694  1  0.59166760  0.75812740  0.85005400  1
  Li  Li695  1  0.59166760  0.95812740  0.05005400  1
  Li  Li696  1  0.59166760  0.95812740  0.25005400  1
  Li  Li697  1  0.59166760  0.95812740  0.45005400  1
  Li  Li698  1  0.59166760  0.95812740  0.65005400  1
  Li  Li699  1  0.59166760  0.95812740  0.85005400  1
  Li  Li700  1  0.79166760  0.15812740  0.05005400  1
  Li  Li701  1  0.79166760  0.15812740  0.25005400  1
  Li  Li702  1  0.79166760  0.15812740  0.45005400  1
  Li  Li703  1  0.79166760  0.15812740  0.65005400  1
  Li  Li704  1  0.79166760  0.15812740  0.85005400  1
  Li  Li705  1  0.79166760  0.35812740  0.05005400  1
  Li  Li706  1  0.79166760  0.35812740  0.25005400  1
  Li  Li707  1  0.79166760  0.35812740  0.45005400  1
  Li  Li708  1  0.79166760  0.35812740  0.65005400  1
  Li  Li709  1  0.79166760  0.35812740  0.85005400  1
  Li  Li710  1  0.79166760  0.55812740  0.05005400  1
  Li  Li711  1  0.79166760  0.55812740  0.25005400  1
  Li  Li712  1  0.79166760  0.55812740  0.45005400  1
  Li  Li713  1  0.79166760  0.55812740  0.65005400  1
  Li  Li714  1  0.79166760  0.55812740  0.85005400  1
  Li  Li715  1  0.79166760  0.75812740  0.05005400  1
  Li  Li716  1  0.79166760  0.75812740  0.25005400  1
  Li  Li717  1  0.79166760  0.75812740  0.45005400  1
  Li  Li718  1  0.79166760  0.75812740  0.65005400  1
  Li  Li719  1  0.79166760  0.75812740  0.85005400  1
  Li  Li720  1  0.79166760  0.95812740  0.05005400  1
  Li  Li721  1  0.79166760  0.95812740  0.25005400  1
  Li  Li722  1  0.79166760  0.95812740  0.45005400  1
  Li  Li723  1  0.79166760  0.95812740  0.65005400  1
  Li  Li724  1  0.79166760  0.95812740  0.85005400  1
  Li  Li725  1  0.99166760  0.15812740  0.05005400  1
  Li  Li726  1  0.99166760  0.15812740  0.25005400  1
  Li  Li727  1  0.99166760  0.15812740  0.45005400  1
  Li  Li728  1  0.99166760  0.15812740  0.65005400  1
  Li  Li729  1  0.99166760  0.15812740  0.85005400  1
  Li  Li730  1  0.99166760  0.35812740  0.05005400  1
  Li  Li731  1  0.99166760  0.35812740  0.25005400  1
  Li  Li732  1  0.99166760  0.35812740  0.45005400  1
  Li  Li733  1  0.99166760  0.35812740  0.65005400  1
  Li  Li734  1  0.99166760  0.35812740  0.85005400  1
  Li  Li735  1  0.99166760  0.55812740  0.05005400  1
  Li  Li736  1  0.99166760  0.55812740  0.25005400  1
  Li  Li737  1  0.99166760  0.55812740  0.45005400  1
  Li  Li738  1  0.99166760  0.55812740  0.65005400  1
  Li  Li739  1  0.99166760  0.55812740  0.85005400  1
  Li  Li740  1  0.99166760  0.75812740  0.05005400  1
  Li  Li741  1  0.99166760  0.75812740  0.25005400  1
  Li  Li742  1  0.99166760  0.75812740  0.45005400  1
  Li  Li743  1  0.99166760  0.75812740  0.65005400  1
  Li  Li744  1  0.99166760  0.75812740  0.85005400  1
  Li  Li745  1  0.99166760  0.95812740  0.05005400  1
  Li  Li746  1  0.99166760  0.95812740  0.25005400  1
  Li  Li747  1  0.99166760  0.95812740  0.45005400  1
  Li  Li748  1  0.99166760  0.95812740  0.65005400  1
  Li  Li749  1  0.99166760  0.95812740  0.85005400  1
  Li  Li750  1  0.10818220  0.14171920  0.04994840  1
  Li  Li751  1  0.10818220  0.14171920  0.24994840  1
  Li  Li752  1  0.10818220  0.14171920  0.44994840  1
  Li  Li753  1  0.10818220  0.14171920  0.64994840  1
  Li  Li754  1  0.10818220  0.14171920  0.84994840  1
  Li  Li755  1  0.10818220  0.34171920  0.04994840  1
  Li  Li756  1  0.10818220  0.34171920  0.24994840  1
  Li  Li757  1  0.10818220  0.34171920  0.44994840  1
  Li  Li758  1  0.10818220  0.34171920  0.64994840  1
  Li  Li759  1  0.10818220  0.34171920  0.84994840  1
  Li  Li760  1  0.10818220  0.54171920  0.04994840  1
  Li  Li761  1  0.10818220  0.54171920  0.24994840  1
  Li  Li762  1  0.10818220  0.54171920  0.44994840  1
  Li  Li763  1  0.10818220  0.54171920  0.64994840  1
  Li  Li764  1  0.10818220  0.54171920  0.84994840  1
  Li  Li765  1  0.10818220  0.74171920  0.04994840  1
  Li  Li766  1  0.10818220  0.74171920  0.24994840  1
  Li  Li767  1  0.10818220  0.74171920  0.44994840  1
  Li  Li768  1  0.10818220  0.74171920  0.64994840  1
  Li  Li769  1  0.10818220  0.74171920  0.84994840  1
  Li  Li770  1  0.10818220  0.94171920  0.04994840  1
  Li  Li771  1  0.10818220  0.94171920  0.24994840  1
  Li  Li772  1  0.10818220  0.94171920  0.44994840  1
  Li  Li773  1  0.10818220  0.94171920  0.64994840  1
  Li  Li774  1  0.10818220  0.94171920  0.84994840  1
  Li  Li775  1  0.30818220  0.14171920  0.04994840  1
  Li  Li776  1  0.30818220  0.14171920  0.24994840  1
  Li  Li777  1  0.30818220  0.14171920  0.44994840  1
  Li  Li778  1  0.30818220  0.14171920  0.64994840  1
  Li  Li779  1  0.30818220  0.14171920  0.84994840  1
  Li  Li780  1  0.30818220  0.34171920  0.04994840  1
  Li  Li781  1  0.30818220  0.34171920  0.24994840  1
  Li  Li782  1  0.30818220  0.34171920  0.44994840  1
  Li  Li783  1  0.30818220  0.34171920  0.64994840  1
  Li  Li784  1  0.30818220  0.34171920  0.84994840  1
  Li  Li785  1  0.30818220  0.54171920  0.04994840  1
  Li  Li786  1  0.30818220  0.54171920  0.24994840  1
  Li  Li787  1  0.30818220  0.54171920  0.44994840  1
  Li  Li788  1  0.30818220  0.54171920  0.64994840  1
  Li  Li789  1  0.30818220  0.54171920  0.84994840  1
  Li  Li790  1  0.30818220  0.74171920  0.04994840  1
  Li  Li791  1  0.30818220  0.74171920  0.24994840  1
  Li  Li792  1  0.30818220  0.74171920  0.44994840  1
  Li  Li793  1  0.30818220  0.74171920  0.64994840  1
  Li  Li794  1  0.30818220  0.74171920  0.84994840  1
  Li  Li795  1  0.30818220  0.94171920  0.04994840  1
  Li  Li796  1  0.30818220  0.94171920  0.24994840  1
  Li  Li797  1  0.30818220  0.94171920  0.44994840  1
  Li  Li798  1  0.30818220  0.94171920  0.64994840  1
  Li  Li799  1  0.30818220  0.94171920  0.84994840  1
  Li  Li800  1  0.50818220  0.14171920  0.04994840  1
  Li  Li801  1  0.50818220  0.14171920  0.24994840  1
  Li  Li802  1  0.50818220  0.14171920  0.44994840  1
  Li  Li803  1  0.50818220  0.14171920  0.64994840  1
  Li  Li804  1  0.50818220  0.14171920  0.84994840  1
  Li  Li805  1  0.50818220  0.34171920  0.04994840  1
  Li  Li806  1  0.50818220  0.34171920  0.24994840  1
  Li  Li807  1  0.50818220  0.34171920  0.44994840  1
  Li  Li808  1  0.50818220  0.34171920  0.64994840  1
  Li  Li809  1  0.50818220  0.34171920  0.84994840  1
  Li  Li810  1  0.50818220  0.54171920  0.04994840  1
  Li  Li811  1  0.50818220  0.54171920  0.24994840  1
  Li  Li812  1  0.50818220  0.54171920  0.44994840  1
  Li  Li813  1  0.50818220  0.54171920  0.64994840  1
  Li  Li814  1  0.50818220  0.54171920  0.84994840  1
  Li  Li815  1  0.50818220  0.74171920  0.04994840  1
  Li  Li816  1  0.50818220  0.74171920  0.24994840  1
  Li  Li817  1  0.50818220  0.74171920  0.44994840  1
  Li  Li818  1  0.50818220  0.74171920  0.64994840  1
  Li  Li819  1  0.50818220  0.74171920  0.84994840  1
  Li  Li820  1  0.50818220  0.94171920  0.04994840  1
  Li  Li821  1  0.50818220  0.94171920  0.24994840  1
  Li  Li822  1  0.50818220  0.94171920  0.44994840  1
  Li  Li823  1  0.50818220  0.94171920  0.64994840  1
  Li  Li824  1  0.50818220  0.94171920  0.84994840  1
  Li  Li825  1  0.70818220  0.14171920  0.04994840  1
  Li  Li826  1  0.70818220  0.14171920  0.24994840  1
  Li  Li827  1  0.70818220  0.14171920  0.44994840  1
  Li  Li828  1  0.70818220  0.14171920  0.64994840  1
  Li  Li829  1  0.70818220  0.14171920  0.84994840  1
  Li  Li830  1  0.70818220  0.34171920  0.04994840  1
  Li  Li831  1  0.70818220  0.34171920  0.24994840  1
  Li  Li832  1  0.70818220  0.34171920  0.44994840  1
  Li  Li833  1  0.70818220  0.34171920  0.64994840  1
  Li  Li834  1  0.70818220  0.34171920  0.84994840  1
  Li  Li835  1  0.70818220  0.54171920  0.04994840  1
  Li  Li836  1  0.70818220  0.54171920  0.24994840  1
  Li  Li837  1  0.70818220  0.54171920  0.44994840  1
  Li  Li838  1  0.70818220  0.54171920  0.64994840  1
  Li  Li839  1  0.70818220  0.54171920  0.84994840  1
  Li  Li840  1  0.70818220  0.74171920  0.04994840  1
  Li  Li841  1  0.70818220  0.74171920  0.24994840  1
  Li  Li842  1  0.70818220  0.74171920  0.44994840  1
  Li  Li843  1  0.70818220  0.74171920  0.64994840  1
  Li  Li844  1  0.70818220  0.74171920  0.84994840  1
  Li  Li845  1  0.70818220  0.94171920  0.04994840  1
  Li  Li846  1  0.70818220  0.94171920  0.24994840  1
  Li  Li847  1  0.70818220  0.94171920  0.44994840  1
  Li  Li848  1  0.70818220  0.94171920  0.64994840  1
  Li  Li849  1  0.70818220  0.94171920  0.84994840  1
  Li  Li850  1  0.90818220  0.14171920  0.04994840  1
  Li  Li851  1  0.90818220  0.14171920  0.24994840  1
  Li  Li852  1  0.90818220  0.14171920  0.44994840  1
  Li  Li853  1  0.90818220  0.14171920  0.64994840  1
  Li  Li854  1  0.90818220  0.14171920  0.84994840  1
  Li  Li855  1  0.90818220  0.34171920  0.04994840  1
  Li  Li856  1  0.90818220  0.34171920  0.24994840  1
  Li  Li857  1  0.90818220  0.34171920  0.44994840  1
  Li  Li858  1  0.90818220  0.34171920  0.64994840  1
  Li  Li859  1  0.90818220  0.34171920  0.84994840  1
  Li  Li860  1  0.90818220  0.54171920  0.04994840  1
  Li  Li861  1  0.90818220  0.54171920  0.24994840  1
  Li  Li862  1  0.90818220  0.54171920  0.44994840  1
  Li  Li863  1  0.90818220  0.54171920  0.64994840  1
  Li  Li864  1  0.90818220  0.54171920  0.84994840  1
  Li  Li865  1  0.90818220  0.74171920  0.04994840  1
  Li  Li866  1  0.90818220  0.74171920  0.24994840  1
  Li  Li867  1  0.90818220  0.74171920  0.44994840  1
  Li  Li868  1  0.90818220  0.74171920  0.64994840  1
  Li  Li869  1  0.90818220  0.74171920  0.84994840  1
  Li  Li870  1  0.90818220  0.94171920  0.04994840  1
  Li  Li871  1  0.90818220  0.94171920  0.24994840  1
  Li  Li872  1  0.90818220  0.94171920  0.44994840  1
  Li  Li873  1  0.90818220  0.94171920  0.64994840  1
  Li  Li874  1  0.90818220  0.94171920  0.84994840  1
  Li  Li875  1  0.00818260  0.04171900  0.04994960  1
  Li  Li876  1  0.00818260  0.04171900  0.24994960  1
  Li  Li877  1  0.00818260  0.04171900  0.44994960  1
  Li  Li878  1  0.00818260  0.04171900  0.64994960  1
  Li  Li879  1  0.00818260  0.04171900  0.84994960  1
  Li  Li880  1  0.00818260  0.24171900  0.04994960  1
  Li  Li881  1  0.00818260  0.24171900  0.24994960  1
  Li  Li882  1  0.00818260  0.24171900  0.44994960  1
  Li  Li883  1  0.00818260  0.24171900  0.64994960  1
  Li  Li884  1  0.00818260  0.24171900  0.84994960  1
  Li  Li885  1  0.00818260  0.44171900  0.04994960  1
  Li  Li886  1  0.00818260  0.44171900  0.24994960  1
  Li  Li887  1  0.00818260  0.44171900  0.44994960  1
  Li  Li888  1  0.00818260  0.44171900  0.64994960  1
  Li  Li889  1  0.00818260  0.44171900  0.84994960  1
  Li  Li890  1  0.00818260  0.64171900  0.04994960  1
  Li  Li891  1  0.00818260  0.64171900  0.24994960  1
  Li  Li892  1  0.00818260  0.64171900  0.44994960  1
  Li  Li893  1  0.00818260  0.64171900  0.64994960  1
  Li  Li894  1  0.00818260  0.64171900  0.84994960  1
  Li  Li895  1  0.00818260  0.84171900  0.04994960  1
  Li  Li896  1  0.00818260  0.84171900  0.24994960  1
  Li  Li897  1  0.00818260  0.84171900  0.44994960  1
  Li  Li898  1  0.00818260  0.84171900  0.64994960  1
  Li  Li899  1  0.00818260  0.84171900  0.84994960  1
  Li  Li900  1  0.20818260  0.04171900  0.04994960  1
  Li  Li901  1  0.20818260  0.04171900  0.24994960  1
  Li  Li902  1  0.20818260  0.04171900  0.44994960  1
  Li  Li903  1  0.20818260  0.04171900  0.64994960  1
  Li  Li904  1  0.20818260  0.04171900  0.84994960  1
  Li  Li905  1  0.20818260  0.24171900  0.04994960  1
  Li  Li906  1  0.20818260  0.24171900  0.24994960  1
  Li  Li907  1  0.20818260  0.24171900  0.44994960  1
  Li  Li908  1  0.20818260  0.24171900  0.64994960  1
  Li  Li909  1  0.20818260  0.24171900  0.84994960  1
  Li  Li910  1  0.20818260  0.44171900  0.04994960  1
  Li  Li911  1  0.20818260  0.44171900  0.24994960  1
  Li  Li912  1  0.20818260  0.44171900  0.44994960  1
  Li  Li913  1  0.20818260  0.44171900  0.64994960  1
  Li  Li914  1  0.20818260  0.44171900  0.84994960  1
  Li  Li915  1  0.20818260  0.64171900  0.04994960  1
  Li  Li916  1  0.20818260  0.64171900  0.24994960  1
  Li  Li917  1  0.20818260  0.64171900  0.44994960  1
  Li  Li918  1  0.20818260  0.64171900  0.64994960  1
  Li  Li919  1  0.20818260  0.64171900  0.84994960  1
  Li  Li920  1  0.20818260  0.84171900  0.04994960  1
  Li  Li921  1  0.20818260  0.84171900  0.24994960  1
  Li  Li922  1  0.20818260  0.84171900  0.44994960  1
  Li  Li923  1  0.20818260  0.84171900  0.64994960  1
  Li  Li924  1  0.20818260  0.84171900  0.84994960  1
  Li  Li925  1  0.40818260  0.04171900  0.04994960  1
  Li  Li926  1  0.40818260  0.04171900  0.24994960  1
  Li  Li927  1  0.40818260  0.04171900  0.44994960  1
  Li  Li928  1  0.40818260  0.04171900  0.64994960  1
  Li  Li929  1  0.40818260  0.04171900  0.84994960  1
  Li  Li930  1  0.40818260  0.24171900  0.04994960  1
  Li  Li931  1  0.40818260  0.24171900  0.24994960  1
  Li  Li932  1  0.40818260  0.24171900  0.44994960  1
  Li  Li933  1  0.40818260  0.24171900  0.64994960  1
  Li  Li934  1  0.40818260  0.24171900  0.84994960  1
  Li  Li935  1  0.40818260  0.44171900  0.04994960  1
  Li  Li936  1  0.40818260  0.44171900  0.24994960  1
  Li  Li937  1  0.40818260  0.44171900  0.44994960  1
  Li  Li938  1  0.40818260  0.44171900  0.64994960  1
  Li  Li939  1  0.40818260  0.44171900  0.84994960  1
  Li  Li940  1  0.40818260  0.64171900  0.04994960  1
  Li  Li941  1  0.40818260  0.64171900  0.24994960  1
  Li  Li942  1  0.40818260  0.64171900  0.44994960  1
  Li  Li943  1  0.40818260  0.64171900  0.64994960  1
  Li  Li944  1  0.40818260  0.64171900  0.84994960  1
  Li  Li945  1  0.40818260  0.84171900  0.04994960  1
  Li  Li946  1  0.40818260  0.84171900  0.24994960  1
  Li  Li947  1  0.40818260  0.84171900  0.44994960  1
  Li  Li948  1  0.40818260  0.84171900  0.64994960  1
  Li  Li949  1  0.40818260  0.84171900  0.84994960  1
  Li  Li950  1  0.60818260  0.04171900  0.04994960  1
  Li  Li951  1  0.60818260  0.04171900  0.24994960  1
  Li  Li952  1  0.60818260  0.04171900  0.44994960  1
  Li  Li953  1  0.60818260  0.04171900  0.64994960  1
  Li  Li954  1  0.60818260  0.04171900  0.84994960  1
  Li  Li955  1  0.60818260  0.24171900  0.04994960  1
  Li  Li956  1  0.60818260  0.24171900  0.24994960  1
  Li  Li957  1  0.60818260  0.24171900  0.44994960  1
  Li  Li958  1  0.60818260  0.24171900  0.64994960  1
  Li  Li959  1  0.60818260  0.24171900  0.84994960  1
  Li  Li960  1  0.60818260  0.44171900  0.04994960  1
  Li  Li961  1  0.60818260  0.44171900  0.24994960  1
  Li  Li962  1  0.60818260  0.44171900  0.44994960  1
  Li  Li963  1  0.60818260  0.44171900  0.64994960  1
  Li  Li964  1  0.60818260  0.44171900  0.84994960  1
  Li  Li965  1  0.60818260  0.64171900  0.04994960  1
  Li  Li966  1  0.60818260  0.64171900  0.24994960  1
  Li  Li967  1  0.60818260  0.64171900  0.44994960  1
  Li  Li968  1  0.60818260  0.64171900  0.64994960  1
  Li  Li969  1  0.60818260  0.64171900  0.84994960  1
  Li  Li970  1  0.60818260  0.84171900  0.04994960  1
  Li  Li971  1  0.60818260  0.84171900  0.24994960  1
  Li  Li972  1  0.60818260  0.84171900  0.44994960  1
  Li  Li973  1  0.60818260  0.84171900  0.64994960  1
  Li  Li974  1  0.60818260  0.84171900  0.84994960  1
  Li  Li975  1  0.80818260  0.04171900  0.04994960  1
  Li  Li976  1  0.80818260  0.04171900  0.24994960  1
  Li  Li977  1  0.80818260  0.04171900  0.44994960  1
  Li  Li978  1  0.80818260  0.04171900  0.64994960  1
  Li  Li979  1  0.80818260  0.04171900  0.84994960  1
  Li  Li980  1  0.80818260  0.24171900  0.04994960  1
  Li  Li981  1  0.80818260  0.24171900  0.24994960  1
  Li  Li982  1  0.80818260  0.24171900  0.44994960  1
  Li  Li983  1  0.80818260  0.24171900  0.64994960  1
  Li  Li984  1  0.80818260  0.24171900  0.84994960  1
  Li  Li985  1  0.80818260  0.44171900  0.04994960  1
  Li  Li986  1  0.80818260  0.44171900  0.24994960  1
  Li  Li987  1  0.80818260  0.44171900  0.44994960  1
  Li  Li988  1  0.80818260  0.44171900  0.64994960  1
  Li  Li989  1  0.80818260  0.44171900  0.84994960  1
  Li  Li990  1  0.80818260  0.64171900  0.04994960  1
  Li  Li991  1  0.80818260  0.64171900  0.24994960  1
  Li  Li992  1  0.80818260  0.64171900  0.44994960  1
  Li  Li993  1  0.80818260  0.64171900  0.64994960  1
  Li  Li994  1  0.80818260  0.64171900  0.84994960  1
  Li  Li995  1  0.80818260  0.84171900  0.04994960  1
  Li  Li996  1  0.80818260  0.84171900  0.24994960  1
  Li  Li997  1  0.80818260  0.84171900  0.44994960  1
  Li  Li998  1  0.80818260  0.84171900  0.64994960  1
  Li  Li999  1  0.80818260  0.84171900  0.84994960  1
  Fe  Fe1000  1  0.08279020  0.01813480  0.19999540  1
  Fe  Fe1001  1  0.08279020  0.01813480  0.39999540  1
  Fe  Fe1002  1  0.08279020  0.01813480  0.59999540  1
  Fe  Fe1003  1  0.08279020  0.01813480  0.79999540  1
  Fe  Fe1004  1  0.08279020  0.01813480  0.99999540  1
  Fe  Fe1005  1  0.08279020  0.21813480  0.19999540  1
  Fe  Fe1006  1  0.08279020  0.21813480  0.39999540  1
  Fe  Fe1007  1  0.08279020  0.21813480  0.59999540  1
  Fe  Fe1008  1  0.08279020  0.21813480  0.79999540  1
  Fe  Fe1009  1  0.08279020  0.21813480  0.99999540  1
  Fe  Fe1010  1  0.08279020  0.41813480  0.19999540  1
  Fe  Fe1011  1  0.08279020  0.41813480  0.39999540  1
  Fe  Fe1012  1  0.08279020  0.41813480  0.59999540  1
  Fe  Fe1013  1  0.08279020  0.41813480  0.79999540  1
  Fe  Fe1014  1  0.08279020  0.41813480  0.99999540  1
  Fe  Fe1015  1  0.08279020  0.61813480  0.19999540  1
  Fe  Fe1016  1  0.08279020  0.61813480  0.39999540  1
  Fe  Fe1017  1  0.08279020  0.61813480  0.59999540  1
  Fe  Fe1018  1  0.08279020  0.61813480  0.79999540  1
  Fe  Fe1019  1  0.08279020  0.61813480  0.99999540  1
  Fe  Fe1020  1  0.08279020  0.81813480  0.19999540  1
  Fe  Fe1021  1  0.08279020  0.81813480  0.39999540  1
  Fe  Fe1022  1  0.08279020  0.81813480  0.59999540  1
  Fe  Fe1023  1  0.08279020  0.81813480  0.79999540  1
  Fe  Fe1024  1  0.08279020  0.81813480  0.99999540  1
  Fe  Fe1025  1  0.28279020  0.01813480  0.19999540  1
  Fe  Fe1026  1  0.28279020  0.01813480  0.39999540  1
  Fe  Fe1027  1  0.28279020  0.01813480  0.59999540  1
  Fe  Fe1028  1  0.28279020  0.01813480  0.79999540  1
  Fe  Fe1029  1  0.28279020  0.01813480  0.99999540  1
  Fe  Fe1030  1  0.28279020  0.21813480  0.19999540  1
  Fe  Fe1031  1  0.28279020  0.21813480  0.39999540  1
  Fe  Fe1032  1  0.28279020  0.21813480  0.59999540  1
  Fe  Fe1033  1  0.28279020  0.21813480  0.79999540  1
  Fe  Fe1034  1  0.28279020  0.21813480  0.99999540  1
  Fe  Fe1035  1  0.28279020  0.41813480  0.19999540  1
  Fe  Fe1036  1  0.28279020  0.41813480  0.39999540  1
  Fe  Fe1037  1  0.28279020  0.41813480  0.59999540  1
  Fe  Fe1038  1  0.28279020  0.41813480  0.79999540  1
  Fe  Fe1039  1  0.28279020  0.41813480  0.99999540  1
  Fe  Fe1040  1  0.28279020  0.61813480  0.19999540  1
  Fe  Fe1041  1  0.28279020  0.61813480  0.39999540  1
  Fe  Fe1042  1  0.28279020  0.61813480  0.59999540  1
  Fe  Fe1043  1  0.28279020  0.61813480  0.79999540  1
  Fe  Fe1044  1  0.28279020  0.61813480  0.99999540  1
  Fe  Fe1045  1  0.28279020  0.81813480  0.19999540  1
  Fe  Fe1046  1  0.28279020  0.81813480  0.39999540  1
  Fe  Fe1047  1  0.28279020  0.81813480  0.59999540  1
  Fe  Fe1048  1  0.28279020  0.81813480  0.79999540  1
  Fe  Fe1049  1  0.28279020  0.81813480  0.99999540  1
  Fe  Fe1050  1  0.48279020  0.01813480  0.19999540  1
  Fe  Fe1051  1  0.48279020  0.01813480  0.39999540  1
  Fe  Fe1052  1  0.48279020  0.01813480  0.59999540  1
  Fe  Fe1053  1  0.48279020  0.01813480  0.79999540  1
  Fe  Fe1054  1  0.48279020  0.01813480  0.99999540  1
  Fe  Fe1055  1  0.48279020  0.21813480  0.19999540  1
  Fe  Fe1056  1  0.48279020  0.21813480  0.39999540  1
  Fe  Fe1057  1  0.48279020  0.21813480  0.59999540  1
  Fe  Fe1058  1  0.48279020  0.21813480  0.79999540  1
  Fe  Fe1059  1  0.48279020  0.21813480  0.99999540  1
  Fe  Fe1060  1  0.48279020  0.41813480  0.19999540  1
  Fe  Fe1061  1  0.48279020  0.41813480  0.39999540  1
  Fe  Fe1062  1  0.48279020  0.41813480  0.59999540  1
  Fe  Fe1063  1  0.48279020  0.41813480  0.79999540  1
  Fe  Fe1064  1  0.48279020  0.41813480  0.99999540  1
  Fe  Fe1065  1  0.48279020  0.61813480  0.19999540  1
  Fe  Fe1066  1  0.48279020  0.61813480  0.39999540  1
  Fe  Fe1067  1  0.48279020  0.61813480  0.59999540  1
  Fe  Fe1068  1  0.48279020  0.61813480  0.79999540  1
  Fe  Fe1069  1  0.48279020  0.61813480  0.99999540  1
  Fe  Fe1070  1  0.48279020  0.81813480  0.19999540  1
  Fe  Fe1071  1  0.48279020  0.81813480  0.39999540  1
  Fe  Fe1072  1  0.48279020  0.81813480  0.59999540  1
  Fe  Fe1073  1  0.48279020  0.81813480  0.79999540  1
  Fe  Fe1074  1  0.48279020  0.81813480  0.99999540  1
  Fe  Fe1075  1  0.68279020  0.01813480  0.19999540  1
  Fe  Fe1076  1  0.68279020  0.01813480  0.39999540  1
  Fe  Fe1077  1  0.68279020  0.01813480  0.59999540  1
  Fe  Fe1078  1  0.68279020  0.01813480  0.79999540  1
  Fe  Fe1079  1  0.68279020  0.01813480  0.99999540  1
  Fe  Fe1080  1  0.68279020  0.21813480  0.19999540  1
  Fe  Fe1081  1  0.68279020  0.21813480  0.39999540  1
  Fe  Fe1082  1  0.68279020  0.21813480  0.59999540  1
  Fe  Fe1083  1  0.68279020  0.21813480  0.79999540  1
  Fe  Fe1084  1  0.68279020  0.21813480  0.99999540  1
  Fe  Fe1085  1  0.68279020  0.41813480  0.19999540  1
  Fe  Fe1086  1  0.68279020  0.41813480  0.39999540  1
  Fe  Fe1087  1  0.68279020  0.41813480  0.59999540  1
  Fe  Fe1088  1  0.68279020  0.41813480  0.79999540  1
  Fe  Fe1089  1  0.68279020  0.41813480  0.99999540  1
  Fe  Fe1090  1  0.68279020  0.61813480  0.19999540  1
  Fe  Fe1091  1  0.68279020  0.61813480  0.39999540  1
  Fe  Fe1092  1  0.68279020  0.61813480  0.59999540  1
  Fe  Fe1093  1  0.68279020  0.61813480  0.79999540  1
  Fe  Fe1094  1  0.68279020  0.61813480  0.99999540  1
  Fe  Fe1095  1  0.68279020  0.81813480  0.19999540  1
  Fe  Fe1096  1  0.68279020  0.81813480  0.39999540  1
  Fe  Fe1097  1  0.68279020  0.81813480  0.59999540  1
  Fe  Fe1098  1  0.68279020  0.81813480  0.79999540  1
  Fe  Fe1099  1  0.68279020  0.81813480  0.99999540  1
  Fe  Fe1100  1  0.88279020  0.01813480  0.19999540  1
  Fe  Fe1101  1  0.88279020  0.01813480  0.39999540  1
  Fe  Fe1102  1  0.88279020  0.01813480  0.59999540  1
  Fe  Fe1103  1  0.88279020  0.01813480  0.79999540  1
  Fe  Fe1104  1  0.88279020  0.01813480  0.99999540  1
  Fe  Fe1105  1  0.88279020  0.21813480  0.19999540  1
  Fe  Fe1106  1  0.88279020  0.21813480  0.39999540  1
  Fe  Fe1107  1  0.88279020  0.21813480  0.59999540  1
  Fe  Fe1108  1  0.88279020  0.21813480  0.79999540  1
  Fe  Fe1109  1  0.88279020  0.21813480  0.99999540  1
  Fe  Fe1110  1  0.88279020  0.41813480  0.19999540  1
  Fe  Fe1111  1  0.88279020  0.41813480  0.39999540  1
  Fe  Fe1112  1  0.88279020  0.41813480  0.59999540  1
  Fe  Fe1113  1  0.88279020  0.41813480  0.79999540  1
  Fe  Fe1114  1  0.88279020  0.41813480  0.99999540  1
  Fe  Fe1115  1  0.88279020  0.61813480  0.19999540  1
  Fe  Fe1116  1  0.88279020  0.61813480  0.39999540  1
  Fe  Fe1117  1  0.88279020  0.61813480  0.59999540  1
  Fe  Fe1118  1  0.88279020  0.61813480  0.79999540  1
  Fe  Fe1119  1  0.88279020  0.61813480  0.99999540  1
  Fe  Fe1120  1  0.88279020  0.81813480  0.19999540  1
  Fe  Fe1121  1  0.88279020  0.81813480  0.39999540  1
  Fe  Fe1122  1  0.88279020  0.81813480  0.59999540  1
  Fe  Fe1123  1  0.88279020  0.81813480  0.79999540  1
  Fe  Fe1124  1  0.88279020  0.81813480  0.99999540  1
  Fe  Fe1125  1  0.01813520  0.08279120  0.09999580  1
  Fe  Fe1126  1  0.01813520  0.08279120  0.29999580  1
  Fe  Fe1127  1  0.01813520  0.08279120  0.49999580  1
  Fe  Fe1128  1  0.01813520  0.08279120  0.69999580  1
  Fe  Fe1129  1  0.01813520  0.08279120  0.89999580  1
  Fe  Fe1130  1  0.01813520  0.28279120  0.09999580  1
  Fe  Fe1131  1  0.01813520  0.28279120  0.29999580  1
  Fe  Fe1132  1  0.01813520  0.28279120  0.49999580  1
  Fe  Fe1133  1  0.01813520  0.28279120  0.69999580  1
  Fe  Fe1134  1  0.01813520  0.28279120  0.89999580  1
  Fe  Fe1135  1  0.01813520  0.48279120  0.09999580  1
  Fe  Fe1136  1  0.01813520  0.48279120  0.29999580  1
  Fe  Fe1137  1  0.01813520  0.48279120  0.49999580  1
  Fe  Fe1138  1  0.01813520  0.48279120  0.69999580  1
  Fe  Fe1139  1  0.01813520  0.48279120  0.89999580  1
  Fe  Fe1140  1  0.01813520  0.68279120  0.09999580  1
  Fe  Fe1141  1  0.01813520  0.68279120  0.29999580  1
  Fe  Fe1142  1  0.01813520  0.68279120  0.49999580  1
  Fe  Fe1143  1  0.01813520  0.68279120  0.69999580  1
  Fe  Fe1144  1  0.01813520  0.68279120  0.89999580  1
  Fe  Fe1145  1  0.01813520  0.88279120  0.09999580  1
  Fe  Fe1146  1  0.01813520  0.88279120  0.29999580  1
  Fe  Fe1147  1  0.01813520  0.88279120  0.49999580  1
  Fe  Fe1148  1  0.01813520  0.88279120  0.69999580  1
  Fe  Fe1149  1  0.01813520  0.88279120  0.89999580  1
  Fe  Fe1150  1  0.21813520  0.08279120  0.09999580  1
  Fe  Fe1151  1  0.21813520  0.08279120  0.29999580  1
  Fe  Fe1152  1  0.21813520  0.08279120  0.49999580  1
  Fe  Fe1153  1  0.21813520  0.08279120  0.69999580  1
  Fe  Fe1154  1  0.21813520  0.08279120  0.89999580  1
  Fe  Fe1155  1  0.21813520  0.28279120  0.09999580  1
  Fe  Fe1156  1  0.21813520  0.28279120  0.29999580  1
  Fe  Fe1157  1  0.21813520  0.28279120  0.49999580  1
  Fe  Fe1158  1  0.21813520  0.28279120  0.69999580  1
  Fe  Fe1159  1  0.21813520  0.28279120  0.89999580  1
  Fe  Fe1160  1  0.21813520  0.48279120  0.09999580  1
  Fe  Fe1161  1  0.21813520  0.48279120  0.29999580  1
  Fe  Fe1162  1  0.21813520  0.48279120  0.49999580  1
  Fe  Fe1163  1  0.21813520  0.48279120  0.69999580  1
  Fe  Fe1164  1  0.21813520  0.48279120  0.89999580  1
  Fe  Fe1165  1  0.21813520  0.68279120  0.09999580  1
  Fe  Fe1166  1  0.21813520  0.68279120  0.29999580  1
  Fe  Fe1167  1  0.21813520  0.68279120  0.49999580  1
  Fe  Fe1168  1  0.21813520  0.68279120  0.69999580  1
  Fe  Fe1169  1  0.21813520  0.68279120  0.89999580  1
  Fe  Fe1170  1  0.21813520  0.88279120  0.09999580  1
  Fe  Fe1171  1  0.21813520  0.88279120  0.29999580  1
  Fe  Fe1172  1  0.21813520  0.88279120  0.49999580  1
  Fe  Fe1173  1  0.21813520  0.88279120  0.69999580  1
  Fe  Fe1174  1  0.21813520  0.88279120  0.89999580  1
  Fe  Fe1175  1  0.41813520  0.08279120  0.09999580  1
  Fe  Fe1176  1  0.41813520  0.08279120  0.29999580  1
  Fe  Fe1177  1  0.41813520  0.08279120  0.49999580  1
  Fe  Fe1178  1  0.41813520  0.08279120  0.69999580  1
  Fe  Fe1179  1  0.41813520  0.08279120  0.89999580  1
  Fe  Fe1180  1  0.41813520  0.28279120  0.09999580  1
  Fe  Fe1181  1  0.41813520  0.28279120  0.29999580  1
  Fe  Fe1182  1  0.41813520  0.28279120  0.49999580  1
  Fe  Fe1183  1  0.41813520  0.28279120  0.69999580  1
  Fe  Fe1184  1  0.41813520  0.28279120  0.89999580  1
  Fe  Fe1185  1  0.41813520  0.48279120  0.09999580  1
  Fe  Fe1186  1  0.41813520  0.48279120  0.29999580  1
  Fe  Fe1187  1  0.41813520  0.48279120  0.49999580  1
  Fe  Fe1188  1  0.41813520  0.48279120  0.69999580  1
  Fe  Fe1189  1  0.41813520  0.48279120  0.89999580  1
  Fe  Fe1190  1  0.41813520  0.68279120  0.09999580  1
  Fe  Fe1191  1  0.41813520  0.68279120  0.29999580  1
  Fe  Fe1192  1  0.41813520  0.68279120  0.49999580  1
  Fe  Fe1193  1  0.41813520  0.68279120  0.69999580  1
  Fe  Fe1194  1  0.41813520  0.68279120  0.89999580  1
  Fe  Fe1195  1  0.41813520  0.88279120  0.09999580  1
  Fe  Fe1196  1  0.41813520  0.88279120  0.29999580  1
  Fe  Fe1197  1  0.41813520  0.88279120  0.49999580  1
  Fe  Fe1198  1  0.41813520  0.88279120  0.69999580  1
  Fe  Fe1199  1  0.41813520  0.88279120  0.89999580  1
  Fe  Fe1200  1  0.61813520  0.08279120  0.09999580  1
  Fe  Fe1201  1  0.61813520  0.08279120  0.29999580  1
  Fe  Fe1202  1  0.61813520  0.08279120  0.49999580  1
  Fe  Fe1203  1  0.61813520  0.08279120  0.69999580  1
  Fe  Fe1204  1  0.61813520  0.08279120  0.89999580  1
  Fe  Fe1205  1  0.61813520  0.28279120  0.09999580  1
  Fe  Fe1206  1  0.61813520  0.28279120  0.29999580  1
  Fe  Fe1207  1  0.61813520  0.28279120  0.49999580  1
  Fe  Fe1208  1  0.61813520  0.28279120  0.69999580  1
  Fe  Fe1209  1  0.61813520  0.28279120  0.89999580  1
  Fe  Fe1210  1  0.61813520  0.48279120  0.09999580  1
  Fe  Fe1211  1  0.61813520  0.48279120  0.29999580  1
  Fe  Fe1212  1  0.61813520  0.48279120  0.49999580  1
  Fe  Fe1213  1  0.61813520  0.48279120  0.69999580  1
  Fe  Fe1214  1  0.61813520  0.48279120  0.89999580  1
  Fe  Fe1215  1  0.61813520  0.68279120  0.09999580  1
  Fe  Fe1216  1  0.61813520  0.68279120  0.29999580  1
  Fe  Fe1217  1  0.61813520  0.68279120  0.49999580  1
  Fe  Fe1218  1  0.61813520  0.68279120  0.69999580  1
  Fe  Fe1219  1  0.61813520  0.68279120  0.89999580  1
  Fe  Fe1220  1  0.61813520  0.88279120  0.09999580  1
  Fe  Fe1221  1  0.61813520  0.88279120  0.29999580  1
  Fe  Fe1222  1  0.61813520  0.88279120  0.49999580  1
  Fe  Fe1223  1  0.61813520  0.88279120  0.69999580  1
  Fe  Fe1224  1  0.61813520  0.88279120  0.89999580  1
  Fe  Fe1225  1  0.81813520  0.08279120  0.09999580  1
  Fe  Fe1226  1  0.81813520  0.08279120  0.29999580  1
  Fe  Fe1227  1  0.81813520  0.08279120  0.49999580  1
  Fe  Fe1228  1  0.81813520  0.08279120  0.69999580  1
  Fe  Fe1229  1  0.81813520  0.08279120  0.89999580  1
  Fe  Fe1230  1  0.81813520  0.28279120  0.09999580  1
  Fe  Fe1231  1  0.81813520  0.28279120  0.29999580  1
  Fe  Fe1232  1  0.81813520  0.28279120  0.49999580  1
  Fe  Fe1233  1  0.81813520  0.28279120  0.69999580  1
  Fe  Fe1234  1  0.81813520  0.28279120  0.89999580  1
  Fe  Fe1235  1  0.81813520  0.48279120  0.09999580  1
  Fe  Fe1236  1  0.81813520  0.48279120  0.29999580  1
  Fe  Fe1237  1  0.81813520  0.48279120  0.49999580  1
  Fe  Fe1238  1  0.81813520  0.48279120  0.69999580  1
  Fe  Fe1239  1  0.81813520  0.48279120  0.89999580  1
  Fe  Fe1240  1  0.81813520  0.68279120  0.09999580  1
  Fe  Fe1241  1  0.81813520  0.68279120  0.29999580  1
  Fe  Fe1242  1  0.81813520  0.68279120  0.49999580  1
  Fe  Fe1243  1  0.81813520  0.68279120  0.69999580  1
  Fe  Fe1244  1  0.81813520  0.68279120  0.89999580  1
  Fe  Fe1245  1  0.81813520  0.88279120  0.09999580  1
  Fe  Fe1246  1  0.81813520  0.88279120  0.29999580  1
  Fe  Fe1247  1  0.81813520  0.88279120  0.49999580  1
  Fe  Fe1248  1  0.81813520  0.88279120  0.69999580  1
  Fe  Fe1249  1  0.81813520  0.88279120  0.89999580  1
  Fe  Fe1250  1  0.18279100  0.11813440  0.19999460  1
  Fe  Fe1251  1  0.18279100  0.11813440  0.39999460  1
  Fe  Fe1252  1  0.18279100  0.11813440  0.59999460  1
  Fe  Fe1253  1  0.18279100  0.11813440  0.79999460  1
  Fe  Fe1254  1  0.18279100  0.11813440  0.99999460  1
  Fe  Fe1255  1  0.18279100  0.31813440  0.19999460  1
  Fe  Fe1256  1  0.18279100  0.31813440  0.39999460  1
  Fe  Fe1257  1  0.18279100  0.31813440  0.59999460  1
  Fe  Fe1258  1  0.18279100  0.31813440  0.79999460  1
  Fe  Fe1259  1  0.18279100  0.31813440  0.99999460  1
  Fe  Fe1260  1  0.18279100  0.51813440  0.19999460  1
  Fe  Fe1261  1  0.18279100  0.51813440  0.39999460  1
  Fe  Fe1262  1  0.18279100  0.51813440  0.59999460  1
  Fe  Fe1263  1  0.18279100  0.51813440  0.79999460  1
  Fe  Fe1264  1  0.18279100  0.51813440  0.99999460  1
  Fe  Fe1265  1  0.18279100  0.71813440  0.19999460  1
  Fe  Fe1266  1  0.18279100  0.71813440  0.39999460  1
  Fe  Fe1267  1  0.18279100  0.71813440  0.59999460  1
  Fe  Fe1268  1  0.18279100  0.71813440  0.79999460  1
  Fe  Fe1269  1  0.18279100  0.71813440  0.99999460  1
  Fe  Fe1270  1  0.18279100  0.91813440  0.19999460  1
  Fe  Fe1271  1  0.18279100  0.91813440  0.39999460  1
  Fe  Fe1272  1  0.18279100  0.91813440  0.59999460  1
  Fe  Fe1273  1  0.18279100  0.91813440  0.79999460  1
  Fe  Fe1274  1  0.18279100  0.91813440  0.99999460  1
  Fe  Fe1275  1  0.38279100  0.11813440  0.19999460  1
  Fe  Fe1276  1  0.38279100  0.11813440  0.39999460  1
  Fe  Fe1277  1  0.38279100  0.11813440  0.59999460  1
  Fe  Fe1278  1  0.38279100  0.11813440  0.79999460  1
  Fe  Fe1279  1  0.38279100  0.11813440  0.99999460  1
  Fe  Fe1280  1  0.38279100  0.31813440  0.19999460  1
  Fe  Fe1281  1  0.38279100  0.31813440  0.39999460  1
  Fe  Fe1282  1  0.38279100  0.31813440  0.59999460  1
  Fe  Fe1283  1  0.38279100  0.31813440  0.79999460  1
  Fe  Fe1284  1  0.38279100  0.31813440  0.99999460  1
  Fe  Fe1285  1  0.38279100  0.51813440  0.19999460  1
  Fe  Fe1286  1  0.38279100  0.51813440  0.39999460  1
  Fe  Fe1287  1  0.38279100  0.51813440  0.59999460  1
  Fe  Fe1288  1  0.38279100  0.51813440  0.79999460  1
  Fe  Fe1289  1  0.38279100  0.51813440  0.99999460  1
  Fe  Fe1290  1  0.38279100  0.71813440  0.19999460  1
  Fe  Fe1291  1  0.38279100  0.71813440  0.39999460  1
  Fe  Fe1292  1  0.38279100  0.71813440  0.59999460  1
  Fe  Fe1293  1  0.38279100  0.71813440  0.79999460  1
  Fe  Fe1294  1  0.38279100  0.71813440  0.99999460  1
  Fe  Fe1295  1  0.38279100  0.91813440  0.19999460  1
  Fe  Fe1296  1  0.38279100  0.91813440  0.39999460  1
  Fe  Fe1297  1  0.38279100  0.91813440  0.59999460  1
  Fe  Fe1298  1  0.38279100  0.91813440  0.79999460  1
  Fe  Fe1299  1  0.38279100  0.91813440  0.99999460  1
  Fe  Fe1300  1  0.58279100  0.11813440  0.19999460  1
  Fe  Fe1301  1  0.58279100  0.11813440  0.39999460  1
  Fe  Fe1302  1  0.58279100  0.11813440  0.59999460  1
  Fe  Fe1303  1  0.58279100  0.11813440  0.79999460  1
  Fe  Fe1304  1  0.58279100  0.11813440  0.99999460  1
  Fe  Fe1305  1  0.58279100  0.31813440  0.19999460  1
  Fe  Fe1306  1  0.58279100  0.31813440  0.39999460  1
  Fe  Fe1307  1  0.58279100  0.31813440  0.59999460  1
  Fe  Fe1308  1  0.58279100  0.31813440  0.79999460  1
  Fe  Fe1309  1  0.58279100  0.31813440  0.99999460  1
  Fe  Fe1310  1  0.58279100  0.51813440  0.19999460  1
  Fe  Fe1311  1  0.58279100  0.51813440  0.39999460  1
  Fe  Fe1312  1  0.58279100  0.51813440  0.59999460  1
  Fe  Fe1313  1  0.58279100  0.51813440  0.79999460  1
  Fe  Fe1314  1  0.58279100  0.51813440  0.99999460  1
  Fe  Fe1315  1  0.58279100  0.71813440  0.19999460  1
  Fe  Fe1316  1  0.58279100  0.71813440  0.39999460  1
  Fe  Fe1317  1  0.58279100  0.71813440  0.59999460  1
  Fe  Fe1318  1  0.58279100  0.71813440  0.79999460  1
  Fe  Fe1319  1  0.58279100  0.71813440  0.99999460  1
  Fe  Fe1320  1  0.58279100  0.91813440  0.19999460  1
  Fe  Fe1321  1  0.58279100  0.91813440  0.39999460  1
  Fe  Fe1322  1  0.58279100  0.91813440  0.59999460  1
  Fe  Fe1323  1  0.58279100  0.91813440  0.79999460  1
  Fe  Fe1324  1  0.58279100  0.91813440  0.99999460  1
  Fe  Fe1325  1  0.78279100  0.11813440  0.19999460  1
  Fe  Fe1326  1  0.78279100  0.11813440  0.39999460  1
  Fe  Fe1327  1  0.78279100  0.11813440  0.59999460  1
  Fe  Fe1328  1  0.78279100  0.11813440  0.79999460  1
  Fe  Fe1329  1  0.78279100  0.11813440  0.99999460  1
  Fe  Fe1330  1  0.78279100  0.31813440  0.19999460  1
  Fe  Fe1331  1  0.78279100  0.31813440  0.39999460  1
  Fe  Fe1332  1  0.78279100  0.31813440  0.59999460  1
  Fe  Fe1333  1  0.78279100  0.31813440  0.79999460  1
  Fe  Fe1334  1  0.78279100  0.31813440  0.99999460  1
  Fe  Fe1335  1  0.78279100  0.51813440  0.19999460  1
  Fe  Fe1336  1  0.78279100  0.51813440  0.39999460  1
  Fe  Fe1337  1  0.78279100  0.51813440  0.59999460  1
  Fe  Fe1338  1  0.78279100  0.51813440  0.79999460  1
  Fe  Fe1339  1  0.78279100  0.51813440  0.99999460  1
  Fe  Fe1340  1  0.78279100  0.71813440  0.19999460  1
  Fe  Fe1341  1  0.78279100  0.71813440  0.39999460  1
  Fe  Fe1342  1  0.78279100  0.71813440  0.59999460  1
  Fe  Fe1343  1  0.78279100  0.71813440  0.79999460  1
  Fe  Fe1344  1  0.78279100  0.71813440  0.99999460  1
  Fe  Fe1345  1  0.78279100  0.91813440  0.19999460  1
  Fe  Fe1346  1  0.78279100  0.91813440  0.39999460  1
  Fe  Fe1347  1  0.78279100  0.91813440  0.59999460  1
  Fe  Fe1348  1  0.78279100  0.91813440  0.79999460  1
  Fe  Fe1349  1  0.78279100  0.91813440  0.99999460  1
  Fe  Fe1350  1  0.98279100  0.11813440  0.19999460  1
  Fe  Fe1351  1  0.98279100  0.11813440  0.39999460  1
  Fe  Fe1352  1  0.98279100  0.11813440  0.59999460  1
  Fe  Fe1353  1  0.98279100  0.11813440  0.79999460  1
  Fe  Fe1354  1  0.98279100  0.11813440  0.99999460  1
  Fe  Fe1355  1  0.98279100  0.31813440  0.19999460  1
  Fe  Fe1356  1  0.98279100  0.31813440  0.39999460  1
  Fe  Fe1357  1  0.98279100  0.31813440  0.59999460  1
  Fe  Fe1358  1  0.98279100  0.31813440  0.79999460  1
  Fe  Fe1359  1  0.98279100  0.31813440  0.99999460  1
  Fe  Fe1360  1  0.98279100  0.51813440  0.19999460  1
  Fe  Fe1361  1  0.98279100  0.51813440  0.39999460  1
  Fe  Fe1362  1  0.98279100  0.51813440  0.59999460  1
  Fe  Fe1363  1  0.98279100  0.51813440  0.79999460  1
  Fe  Fe1364  1  0.98279100  0.51813440  0.99999460  1
  Fe  Fe1365  1  0.98279100  0.71813440  0.19999460  1
  Fe  Fe1366  1  0.98279100  0.71813440  0.39999460  1
  Fe  Fe1367  1  0.98279100  0.71813440  0.59999460  1
  Fe  Fe1368  1  0.98279100  0.71813440  0.79999460  1
  Fe  Fe1369  1  0.98279100  0.71813440  0.99999460  1
  Fe  Fe1370  1  0.98279100  0.91813440  0.19999460  1
  Fe  Fe1371  1  0.98279100  0.91813440  0.39999460  1
  Fe  Fe1372  1  0.98279100  0.91813440  0.59999460  1
  Fe  Fe1373  1  0.98279100  0.91813440  0.79999460  1
  Fe  Fe1374  1  0.98279100  0.91813440  0.99999460  1
  Fe  Fe1375  1  0.11813700  0.18279120  0.09999560  1
  Fe  Fe1376  1  0.11813700  0.18279120  0.29999560  1
  Fe  Fe1377  1  0.11813700  0.18279120  0.49999560  1
  Fe  Fe1378  1  0.11813700  0.18279120  0.69999560  1
  Fe  Fe1379  1  0.11813700  0.18279120  0.89999560  1
  Fe  Fe1380  1  0.11813700  0.38279120  0.09999560  1
  Fe  Fe1381  1  0.11813700  0.38279120  0.29999560  1
  Fe  Fe1382  1  0.11813700  0.38279120  0.49999560  1
  Fe  Fe1383  1  0.11813700  0.38279120  0.69999560  1
  Fe  Fe1384  1  0.11813700  0.38279120  0.89999560  1
  Fe  Fe1385  1  0.11813700  0.58279120  0.09999560  1
  Fe  Fe1386  1  0.11813700  0.58279120  0.29999560  1
  Fe  Fe1387  1  0.11813700  0.58279120  0.49999560  1
  Fe  Fe1388  1  0.11813700  0.58279120  0.69999560  1
  Fe  Fe1389  1  0.11813700  0.58279120  0.89999560  1
  Fe  Fe1390  1  0.11813700  0.78279120  0.09999560  1
  Fe  Fe1391  1  0.11813700  0.78279120  0.29999560  1
  Fe  Fe1392  1  0.11813700  0.78279120  0.49999560  1
  Fe  Fe1393  1  0.11813700  0.78279120  0.69999560  1
  Fe  Fe1394  1  0.11813700  0.78279120  0.89999560  1
  Fe  Fe1395  1  0.11813700  0.98279120  0.09999560  1
  Fe  Fe1396  1  0.11813700  0.98279120  0.29999560  1
  Fe  Fe1397  1  0.11813700  0.98279120  0.49999560  1
  Fe  Fe1398  1  0.11813700  0.98279120  0.69999560  1
  Fe  Fe1399  1  0.11813700  0.98279120  0.89999560  1
  Fe  Fe1400  1  0.31813700  0.18279120  0.09999560  1
  Fe  Fe1401  1  0.31813700  0.18279120  0.29999560  1
  Fe  Fe1402  1  0.31813700  0.18279120  0.49999560  1
  Fe  Fe1403  1  0.31813700  0.18279120  0.69999560  1
  Fe  Fe1404  1  0.31813700  0.18279120  0.89999560  1
  Fe  Fe1405  1  0.31813700  0.38279120  0.09999560  1
  Fe  Fe1406  1  0.31813700  0.38279120  0.29999560  1
  Fe  Fe1407  1  0.31813700  0.38279120  0.49999560  1
  Fe  Fe1408  1  0.31813700  0.38279120  0.69999560  1
  Fe  Fe1409  1  0.31813700  0.38279120  0.89999560  1
  Fe  Fe1410  1  0.31813700  0.58279120  0.09999560  1
  Fe  Fe1411  1  0.31813700  0.58279120  0.29999560  1
  Fe  Fe1412  1  0.31813700  0.58279120  0.49999560  1
  Fe  Fe1413  1  0.31813700  0.58279120  0.69999560  1
  Fe  Fe1414  1  0.31813700  0.58279120  0.89999560  1
  Fe  Fe1415  1  0.31813700  0.78279120  0.09999560  1
  Fe  Fe1416  1  0.31813700  0.78279120  0.29999560  1
  Fe  Fe1417  1  0.31813700  0.78279120  0.49999560  1
  Fe  Fe1418  1  0.31813700  0.78279120  0.69999560  1
  Fe  Fe1419  1  0.31813700  0.78279120  0.89999560  1
  Fe  Fe1420  1  0.31813700  0.98279120  0.09999560  1
  Fe  Fe1421  1  0.31813700  0.98279120  0.29999560  1
  Fe  Fe1422  1  0.31813700  0.98279120  0.49999560  1
  Fe  Fe1423  1  0.31813700  0.98279120  0.69999560  1
  Fe  Fe1424  1  0.31813700  0.98279120  0.89999560  1
  Fe  Fe1425  1  0.51813700  0.18279120  0.09999560  1
  Fe  Fe1426  1  0.51813700  0.18279120  0.29999560  1
  Fe  Fe1427  1  0.51813700  0.18279120  0.49999560  1
  Fe  Fe1428  1  0.51813700  0.18279120  0.69999560  1
  Fe  Fe1429  1  0.51813700  0.18279120  0.89999560  1
  Fe  Fe1430  1  0.51813700  0.38279120  0.09999560  1
  Fe  Fe1431  1  0.51813700  0.38279120  0.29999560  1
  Fe  Fe1432  1  0.51813700  0.38279120  0.49999560  1
  Fe  Fe1433  1  0.51813700  0.38279120  0.69999560  1
  Fe  Fe1434  1  0.51813700  0.38279120  0.89999560  1
  Fe  Fe1435  1  0.51813700  0.58279120  0.09999560  1
  Fe  Fe1436  1  0.51813700  0.58279120  0.29999560  1
  Fe  Fe1437  1  0.51813700  0.58279120  0.49999560  1
  Fe  Fe1438  1  0.51813700  0.58279120  0.69999560  1
  Fe  Fe1439  1  0.51813700  0.58279120  0.89999560  1
  Fe  Fe1440  1  0.51813700  0.78279120  0.09999560  1
  Fe  Fe1441  1  0.51813700  0.78279120  0.29999560  1
  Fe  Fe1442  1  0.51813700  0.78279120  0.49999560  1
  Fe  Fe1443  1  0.51813700  0.78279120  0.69999560  1
  Fe  Fe1444  1  0.51813700  0.78279120  0.89999560  1
  Fe  Fe1445  1  0.51813700  0.98279120  0.09999560  1
  Fe  Fe1446  1  0.51813700  0.98279120  0.29999560  1
  Fe  Fe1447  1  0.51813700  0.98279120  0.49999560  1
  Fe  Fe1448  1  0.51813700  0.98279120  0.69999560  1
  Fe  Fe1449  1  0.51813700  0.98279120  0.89999560  1
  Fe  Fe1450  1  0.71813700  0.18279120  0.09999560  1
  Fe  Fe1451  1  0.71813700  0.18279120  0.29999560  1
  Fe  Fe1452  1  0.71813700  0.18279120  0.49999560  1
  Fe  Fe1453  1  0.71813700  0.18279120  0.69999560  1
  Fe  Fe1454  1  0.71813700  0.18279120  0.89999560  1
  Fe  Fe1455  1  0.71813700  0.38279120  0.09999560  1
  Fe  Fe1456  1  0.71813700  0.38279120  0.29999560  1
  Fe  Fe1457  1  0.71813700  0.38279120  0.49999560  1
  Fe  Fe1458  1  0.71813700  0.38279120  0.69999560  1
  Fe  Fe1459  1  0.71813700  0.38279120  0.89999560  1
  Fe  Fe1460  1  0.71813700  0.58279120  0.09999560  1
  Fe  Fe1461  1  0.71813700  0.58279120  0.29999560  1
  Fe  Fe1462  1  0.71813700  0.58279120  0.49999560  1
  Fe  Fe1463  1  0.71813700  0.58279120  0.69999560  1
  Fe  Fe1464  1  0.71813700  0.58279120  0.89999560  1
  Fe  Fe1465  1  0.71813700  0.78279120  0.09999560  1
  Fe  Fe1466  1  0.71813700  0.78279120  0.29999560  1
  Fe  Fe1467  1  0.71813700  0.78279120  0.49999560  1
  Fe  Fe1468  1  0.71813700  0.78279120  0.69999560  1
  Fe  Fe1469  1  0.71813700  0.78279120  0.89999560  1
  Fe  Fe1470  1  0.71813700  0.98279120  0.09999560  1
  Fe  Fe1471  1  0.71813700  0.98279120  0.29999560  1
  Fe  Fe1472  1  0.71813700  0.98279120  0.49999560  1
  Fe  Fe1473  1  0.71813700  0.98279120  0.69999560  1
  Fe  Fe1474  1  0.71813700  0.98279120  0.89999560  1
  Fe  Fe1475  1  0.91813700  0.18279120  0.09999560  1
  Fe  Fe1476  1  0.91813700  0.18279120  0.29999560  1
  Fe  Fe1477  1  0.91813700  0.18279120  0.49999560  1
  Fe  Fe1478  1  0.91813700  0.18279120  0.69999560  1
  Fe  Fe1479  1  0.91813700  0.18279120  0.89999560  1
  Fe  Fe1480  1  0.91813700  0.38279120  0.09999560  1
  Fe  Fe1481  1  0.91813700  0.38279120  0.29999560  1
  Fe  Fe1482  1  0.91813700  0.38279120  0.49999560  1
  Fe  Fe1483  1  0.91813700  0.38279120  0.69999560  1
  Fe  Fe1484  1  0.91813700  0.38279120  0.89999560  1
  Fe  Fe1485  1  0.91813700  0.58279120  0.09999560  1
  Fe  Fe1486  1  0.91813700  0.58279120  0.29999560  1
  Fe  Fe1487  1  0.91813700  0.58279120  0.49999560  1
  Fe  Fe1488  1  0.91813700  0.58279120  0.69999560  1
  Fe  Fe1489  1  0.91813700  0.58279120  0.89999560  1
  Fe  Fe1490  1  0.91813700  0.78279120  0.09999560  1
  Fe  Fe1491  1  0.91813700  0.78279120  0.29999560  1
  Fe  Fe1492  1  0.91813700  0.78279120  0.49999560  1
  Fe  Fe1493  1  0.91813700  0.78279120  0.69999560  1
  Fe  Fe1494  1  0.91813700  0.78279120  0.89999560  1
  Fe  Fe1495  1  0.91813700  0.98279120  0.09999560  1
  Fe  Fe1496  1  0.91813700  0.98279120  0.29999560  1
  Fe  Fe1497  1  0.91813700  0.98279120  0.49999560  1
  Fe  Fe1498  1  0.91813700  0.98279120  0.69999560  1
  Fe  Fe1499  1  0.91813700  0.98279120  0.89999560  1
  Ge  Ge1500  1  0.16605360  0.03237060  0.19999840  1
  Ge  Ge1501  1  0.16605360  0.03237060  0.39999840  1
  Ge  Ge1502  1  0.16605360  0.03237060  0.59999840  1
  Ge  Ge1503  1  0.16605360  0.03237060  0.79999840  1
  Ge  Ge1504  1  0.16605360  0.03237060  0.99999840  1
  Ge  Ge1505  1  0.16605360  0.23237060  0.19999840  1
  Ge  Ge1506  1  0.16605360  0.23237060  0.39999840  1
  Ge  Ge1507  1  0.16605360  0.23237060  0.59999840  1
  Ge  Ge1508  1  0.16605360  0.23237060  0.79999840  1
  Ge  Ge1509  1  0.16605360  0.23237060  0.99999840  1
  Ge  Ge1510  1  0.16605360  0.43237060  0.19999840  1
  Ge  Ge1511  1  0.16605360  0.43237060  0.39999840  1
  Ge  Ge1512  1  0.16605360  0.43237060  0.59999840  1
  Ge  Ge1513  1  0.16605360  0.43237060  0.79999840  1
  Ge  Ge1514  1  0.16605360  0.43237060  0.99999840  1
  Ge  Ge1515  1  0.16605360  0.63237060  0.19999840  1
  Ge  Ge1516  1  0.16605360  0.63237060  0.39999840  1
  Ge  Ge1517  1  0.16605360  0.63237060  0.59999840  1
  Ge  Ge1518  1  0.16605360  0.63237060  0.79999840  1
  Ge  Ge1519  1  0.16605360  0.63237060  0.99999840  1
  Ge  Ge1520  1  0.16605360  0.83237060  0.19999840  1
  Ge  Ge1521  1  0.16605360  0.83237060  0.39999840  1
  Ge  Ge1522  1  0.16605360  0.83237060  0.59999840  1
  Ge  Ge1523  1  0.16605360  0.83237060  0.79999840  1
  Ge  Ge1524  1  0.16605360  0.83237060  0.99999840  1
  Ge  Ge1525  1  0.36605360  0.03237060  0.19999840  1
  Ge  Ge1526  1  0.36605360  0.03237060  0.39999840  1
  Ge  Ge1527  1  0.36605360  0.03237060  0.59999840  1
  Ge  Ge1528  1  0.36605360  0.03237060  0.79999840  1
  Ge  Ge1529  1  0.36605360  0.03237060  0.99999840  1
  Ge  Ge1530  1  0.36605360  0.23237060  0.19999840  1
  Ge  Ge1531  1  0.36605360  0.23237060  0.39999840  1
  Ge  Ge1532  1  0.36605360  0.23237060  0.59999840  1
  Ge  Ge1533  1  0.36605360  0.23237060  0.79999840  1
  Ge  Ge1534  1  0.36605360  0.23237060  0.99999840  1
  Ge  Ge1535  1  0.36605360  0.43237060  0.19999840  1
  Ge  Ge1536  1  0.36605360  0.43237060  0.39999840  1
  Ge  Ge1537  1  0.36605360  0.43237060  0.59999840  1
  Ge  Ge1538  1  0.36605360  0.43237060  0.79999840  1
  Ge  Ge1539  1  0.36605360  0.43237060  0.99999840  1
  Ge  Ge1540  1  0.36605360  0.63237060  0.19999840  1
  Ge  Ge1541  1  0.36605360  0.63237060  0.39999840  1
  Ge  Ge1542  1  0.36605360  0.63237060  0.59999840  1
  Ge  Ge1543  1  0.36605360  0.63237060  0.79999840  1
  Ge  Ge1544  1  0.36605360  0.63237060  0.99999840  1
  Ge  Ge1545  1  0.36605360  0.83237060  0.19999840  1
  Ge  Ge1546  1  0.36605360  0.83237060  0.39999840  1
  Ge  Ge1547  1  0.36605360  0.83237060  0.59999840  1
  Ge  Ge1548  1  0.36605360  0.83237060  0.79999840  1
  Ge  Ge1549  1  0.36605360  0.83237060  0.99999840  1
  Ge  Ge1550  1  0.56605360  0.03237060  0.19999840  1
  Ge  Ge1551  1  0.56605360  0.03237060  0.39999840  1
  Ge  Ge1552  1  0.56605360  0.03237060  0.59999840  1
  Ge  Ge1553  1  0.56605360  0.03237060  0.79999840  1
  Ge  Ge1554  1  0.56605360  0.03237060  0.99999840  1
  Ge  Ge1555  1  0.56605360  0.23237060  0.19999840  1
  Ge  Ge1556  1  0.56605360  0.23237060  0.39999840  1
  Ge  Ge1557  1  0.56605360  0.23237060  0.59999840  1
  Ge  Ge1558  1  0.56605360  0.23237060  0.79999840  1
  Ge  Ge1559  1  0.56605360  0.23237060  0.99999840  1
  Ge  Ge1560  1  0.56605360  0.43237060  0.19999840  1
  Ge  Ge1561  1  0.56605360  0.43237060  0.39999840  1
  Ge  Ge1562  1  0.56605360  0.43237060  0.59999840  1
  Ge  Ge1563  1  0.56605360  0.43237060  0.79999840  1
  Ge  Ge1564  1  0.56605360  0.43237060  0.99999840  1
  Ge  Ge1565  1  0.56605360  0.63237060  0.19999840  1
  Ge  Ge1566  1  0.56605360  0.63237060  0.39999840  1
  Ge  Ge1567  1  0.56605360  0.63237060  0.59999840  1
  Ge  Ge1568  1  0.56605360  0.63237060  0.79999840  1
  Ge  Ge1569  1  0.56605360  0.63237060  0.99999840  1
  Ge  Ge1570  1  0.56605360  0.83237060  0.19999840  1
  Ge  Ge1571  1  0.56605360  0.83237060  0.39999840  1
  Ge  Ge1572  1  0.56605360  0.83237060  0.59999840  1
  Ge  Ge1573  1  0.56605360  0.83237060  0.79999840  1
  Ge  Ge1574  1  0.56605360  0.83237060  0.99999840  1
  Ge  Ge1575  1  0.76605360  0.03237060  0.19999840  1
  Ge  Ge1576  1  0.76605360  0.03237060  0.39999840  1
  Ge  Ge1577  1  0.76605360  0.03237060  0.59999840  1
  Ge  Ge1578  1  0.76605360  0.03237060  0.79999840  1
  Ge  Ge1579  1  0.76605360  0.03237060  0.99999840  1
  Ge  Ge1580  1  0.76605360  0.23237060  0.19999840  1
  Ge  Ge1581  1  0.76605360  0.23237060  0.39999840  1
  Ge  Ge1582  1  0.76605360  0.23237060  0.59999840  1
  Ge  Ge1583  1  0.76605360  0.23237060  0.79999840  1
  Ge  Ge1584  1  0.76605360  0.23237060  0.99999840  1
  Ge  Ge1585  1  0.76605360  0.43237060  0.19999840  1
  Ge  Ge1586  1  0.76605360  0.43237060  0.39999840  1
  Ge  Ge1587  1  0.76605360  0.43237060  0.59999840  1
  Ge  Ge1588  1  0.76605360  0.43237060  0.79999840  1
  Ge  Ge1589  1  0.76605360  0.43237060  0.99999840  1
  Ge  Ge1590  1  0.76605360  0.63237060  0.19999840  1
  Ge  Ge1591  1  0.76605360  0.63237060  0.39999840  1
  Ge  Ge1592  1  0.76605360  0.63237060  0.59999840  1
  Ge  Ge1593  1  0.76605360  0.63237060  0.79999840  1
  Ge  Ge1594  1  0.76605360  0.63237060  0.99999840  1
  Ge  Ge1595  1  0.76605360  0.83237060  0.19999840  1
  Ge  Ge1596  1  0.76605360  0.83237060  0.39999840  1
  Ge  Ge1597  1  0.76605360  0.83237060  0.59999840  1
  Ge  Ge1598  1  0.76605360  0.83237060  0.79999840  1
  Ge  Ge1599  1  0.76605360  0.83237060  0.99999840  1
  Ge  Ge1600  1  0.96605360  0.03237060  0.19999840  1
  Ge  Ge1601  1  0.96605360  0.03237060  0.39999840  1
  Ge  Ge1602  1  0.96605360  0.03237060  0.59999840  1
  Ge  Ge1603  1  0.96605360  0.03237060  0.79999840  1
  Ge  Ge1604  1  0.96605360  0.03237060  0.99999840  1
  Ge  Ge1605  1  0.96605360  0.23237060  0.19999840  1
  Ge  Ge1606  1  0.96605360  0.23237060  0.39999840  1
  Ge  Ge1607  1  0.96605360  0.23237060  0.59999840  1
  Ge  Ge1608  1  0.96605360  0.23237060  0.79999840  1
  Ge  Ge1609  1  0.96605360  0.23237060  0.99999840  1
  Ge  Ge1610  1  0.96605360  0.43237060  0.19999840  1
  Ge  Ge1611  1  0.96605360  0.43237060  0.39999840  1
  Ge  Ge1612  1  0.96605360  0.43237060  0.59999840  1
  Ge  Ge1613  1  0.96605360  0.43237060  0.79999840  1
  Ge  Ge1614  1  0.96605360  0.43237060  0.99999840  1
  Ge  Ge1615  1  0.96605360  0.63237060  0.19999840  1
  Ge  Ge1616  1  0.96605360  0.63237060  0.39999840  1
  Ge  Ge1617  1  0.96605360  0.63237060  0.59999840  1
  Ge  Ge1618  1  0.96605360  0.63237060  0.79999840  1
  Ge  Ge1619  1  0.96605360  0.63237060  0.99999840  1
  Ge  Ge1620  1  0.96605360  0.83237060  0.19999840  1
  Ge  Ge1621  1  0.96605360  0.83237060  0.39999840  1
  Ge  Ge1622  1  0.96605360  0.83237060  0.59999840  1
  Ge  Ge1623  1  0.96605360  0.83237060  0.79999840  1
  Ge  Ge1624  1  0.96605360  0.83237060  0.99999840  1
  Ge  Ge1625  1  0.06605400  0.13237080  0.19999920  1
  Ge  Ge1626  1  0.06605400  0.13237080  0.39999920  1
  Ge  Ge1627  1  0.06605400  0.13237080  0.59999920  1
  Ge  Ge1628  1  0.06605400  0.13237080  0.79999920  1
  Ge  Ge1629  1  0.06605400  0.13237080  0.99999920  1
  Ge  Ge1630  1  0.06605400  0.33237080  0.19999920  1
  Ge  Ge1631  1  0.06605400  0.33237080  0.39999920  1
  Ge  Ge1632  1  0.06605400  0.33237080  0.59999920  1
  Ge  Ge1633  1  0.06605400  0.33237080  0.79999920  1
  Ge  Ge1634  1  0.06605400  0.33237080  0.99999920  1
  Ge  Ge1635  1  0.06605400  0.53237080  0.19999920  1
  Ge  Ge1636  1  0.06605400  0.53237080  0.39999920  1
  Ge  Ge1637  1  0.06605400  0.53237080  0.59999920  1
  Ge  Ge1638  1  0.06605400  0.53237080  0.79999920  1
  Ge  Ge1639  1  0.06605400  0.53237080  0.99999920  1
  Ge  Ge1640  1  0.06605400  0.73237080  0.19999920  1
  Ge  Ge1641  1  0.06605400  0.73237080  0.39999920  1
  Ge  Ge1642  1  0.06605400  0.73237080  0.59999920  1
  Ge  Ge1643  1  0.06605400  0.73237080  0.79999920  1
  Ge  Ge1644  1  0.06605400  0.73237080  0.99999920  1
  Ge  Ge1645  1  0.06605400  0.93237080  0.19999920  1
  Ge  Ge1646  1  0.06605400  0.93237080  0.39999920  1
  Ge  Ge1647  1  0.06605400  0.93237080  0.59999920  1
  Ge  Ge1648  1  0.06605400  0.93237080  0.79999920  1
  Ge  Ge1649  1  0.06605400  0.93237080  0.99999920  1
  Ge  Ge1650  1  0.26605400  0.13237080  0.19999920  1
  Ge  Ge1651  1  0.26605400  0.13237080  0.39999920  1
  Ge  Ge1652  1  0.26605400  0.13237080  0.59999920  1
  Ge  Ge1653  1  0.26605400  0.13237080  0.79999920  1
  Ge  Ge1654  1  0.26605400  0.13237080  0.99999920  1
  Ge  Ge1655  1  0.26605400  0.33237080  0.19999920  1
  Ge  Ge1656  1  0.26605400  0.33237080  0.39999920  1
  Ge  Ge1657  1  0.26605400  0.33237080  0.59999920  1
  Ge  Ge1658  1  0.26605400  0.33237080  0.79999920  1
  Ge  Ge1659  1  0.26605400  0.33237080  0.99999920  1
  Ge  Ge1660  1  0.26605400  0.53237080  0.19999920  1
  Ge  Ge1661  1  0.26605400  0.53237080  0.39999920  1
  Ge  Ge1662  1  0.26605400  0.53237080  0.59999920  1
  Ge  Ge1663  1  0.26605400  0.53237080  0.79999920  1
  Ge  Ge1664  1  0.26605400  0.53237080  0.99999920  1
  Ge  Ge1665  1  0.26605400  0.73237080  0.19999920  1
  Ge  Ge1666  1  0.26605400  0.73237080  0.39999920  1
  Ge  Ge1667  1  0.26605400  0.73237080  0.59999920  1
  Ge  Ge1668  1  0.26605400  0.73237080  0.79999920  1
  Ge  Ge1669  1  0.26605400  0.73237080  0.99999920  1
  Ge  Ge1670  1  0.26605400  0.93237080  0.19999920  1
  Ge  Ge1671  1  0.26605400  0.93237080  0.39999920  1
  Ge  Ge1672  1  0.26605400  0.93237080  0.59999920  1
  Ge  Ge1673  1  0.26605400  0.93237080  0.79999920  1
  Ge  Ge1674  1  0.26605400  0.93237080  0.99999920  1
  Ge  Ge1675  1  0.46605400  0.13237080  0.19999920  1
  Ge  Ge1676  1  0.46605400  0.13237080  0.39999920  1
  Ge  Ge1677  1  0.46605400  0.13237080  0.59999920  1
  Ge  Ge1678  1  0.46605400  0.13237080  0.79999920  1
  Ge  Ge1679  1  0.46605400  0.13237080  0.99999920  1
  Ge  Ge1680  1  0.46605400  0.33237080  0.19999920  1
  Ge  Ge1681  1  0.46605400  0.33237080  0.39999920  1
  Ge  Ge1682  1  0.46605400  0.33237080  0.59999920  1
  Ge  Ge1683  1  0.46605400  0.33237080  0.79999920  1
  Ge  Ge1684  1  0.46605400  0.33237080  0.99999920  1
  Ge  Ge1685  1  0.46605400  0.53237080  0.19999920  1
  Ge  Ge1686  1  0.46605400  0.53237080  0.39999920  1
  Ge  Ge1687  1  0.46605400  0.53237080  0.59999920  1
  Ge  Ge1688  1  0.46605400  0.53237080  0.79999920  1
  Ge  Ge1689  1  0.46605400  0.53237080  0.99999920  1
  Ge  Ge1690  1  0.46605400  0.73237080  0.19999920  1
  Ge  Ge1691  1  0.46605400  0.73237080  0.39999920  1
  Ge  Ge1692  1  0.46605400  0.73237080  0.59999920  1
  Ge  Ge1693  1  0.46605400  0.73237080  0.79999920  1
  Ge  Ge1694  1  0.46605400  0.73237080  0.99999920  1
  Ge  Ge1695  1  0.46605400  0.93237080  0.19999920  1
  Ge  Ge1696  1  0.46605400  0.93237080  0.39999920  1
  Ge  Ge1697  1  0.46605400  0.93237080  0.59999920  1
  Ge  Ge1698  1  0.46605400  0.93237080  0.79999920  1
  Ge  Ge1699  1  0.46605400  0.93237080  0.99999920  1
  Ge  Ge1700  1  0.66605400  0.13237080  0.19999920  1
  Ge  Ge1701  1  0.66605400  0.13237080  0.39999920  1
  Ge  Ge1702  1  0.66605400  0.13237080  0.59999920  1
  Ge  Ge1703  1  0.66605400  0.13237080  0.79999920  1
  Ge  Ge1704  1  0.66605400  0.13237080  0.99999920  1
  Ge  Ge1705  1  0.66605400  0.33237080  0.19999920  1
  Ge  Ge1706  1  0.66605400  0.33237080  0.39999920  1
  Ge  Ge1707  1  0.66605400  0.33237080  0.59999920  1
  Ge  Ge1708  1  0.66605400  0.33237080  0.79999920  1
  Ge  Ge1709  1  0.66605400  0.33237080  0.99999920  1
  Ge  Ge1710  1  0.66605400  0.53237080  0.19999920  1
  Ge  Ge1711  1  0.66605400  0.53237080  0.39999920  1
  Ge  Ge1712  1  0.66605400  0.53237080  0.59999920  1
  Ge  Ge1713  1  0.66605400  0.53237080  0.79999920  1
  Ge  Ge1714  1  0.66605400  0.53237080  0.99999920  1
  Ge  Ge1715  1  0.66605400  0.73237080  0.19999920  1
  Ge  Ge1716  1  0.66605400  0.73237080  0.39999920  1
  Ge  Ge1717  1  0.66605400  0.73237080  0.59999920  1
  Ge  Ge1718  1  0.66605400  0.73237080  0.79999920  1
  Ge  Ge1719  1  0.66605400  0.73237080  0.99999920  1
  Ge  Ge1720  1  0.66605400  0.93237080  0.19999920  1
  Ge  Ge1721  1  0.66605400  0.93237080  0.39999920  1
  Ge  Ge1722  1  0.66605400  0.93237080  0.59999920  1
  Ge  Ge1723  1  0.66605400  0.93237080  0.79999920  1
  Ge  Ge1724  1  0.66605400  0.93237080  0.99999920  1
  Ge  Ge1725  1  0.86605400  0.13237080  0.19999920  1
  Ge  Ge1726  1  0.86605400  0.13237080  0.39999920  1
  Ge  Ge1727  1  0.86605400  0.13237080  0.59999920  1
  Ge  Ge1728  1  0.86605400  0.13237080  0.79999920  1
  Ge  Ge1729  1  0.86605400  0.13237080  0.99999920  1
  Ge  Ge1730  1  0.86605400  0.33237080  0.19999920  1
  Ge  Ge1731  1  0.86605400  0.33237080  0.39999920  1
  Ge  Ge1732  1  0.86605400  0.33237080  0.59999920  1
  Ge  Ge1733  1  0.86605400  0.33237080  0.79999920  1
  Ge  Ge1734  1  0.86605400  0.33237080  0.99999920  1
  Ge  Ge1735  1  0.86605400  0.53237080  0.19999920  1
  Ge  Ge1736  1  0.86605400  0.53237080  0.39999920  1
  Ge  Ge1737  1  0.86605400  0.53237080  0.59999920  1
  Ge  Ge1738  1  0.86605400  0.53237080  0.79999920  1
  Ge  Ge1739  1  0.86605400  0.53237080  0.99999920  1
  Ge  Ge1740  1  0.86605400  0.73237080  0.19999920  1
  Ge  Ge1741  1  0.86605400  0.73237080  0.39999920  1
  Ge  Ge1742  1  0.86605400  0.73237080  0.59999920  1
  Ge  Ge1743  1  0.86605400  0.73237080  0.79999920  1
  Ge  Ge1744  1  0.86605400  0.73237080  0.99999920  1
  Ge  Ge1745  1  0.86605400  0.93237080  0.19999920  1
  Ge  Ge1746  1  0.86605400  0.93237080  0.39999920  1
  Ge  Ge1747  1  0.86605400  0.93237080  0.59999920  1
  Ge  Ge1748  1  0.86605400  0.93237080  0.79999920  1
  Ge  Ge1749  1  0.86605400  0.93237080  0.99999920  1
  Ge  Ge1750  1  0.03237160  0.16605460  0.09999740  1
  Ge  Ge1751  1  0.03237160  0.16605460  0.29999740  1
  Ge  Ge1752  1  0.03237160  0.16605460  0.49999740  1
  Ge  Ge1753  1  0.03237160  0.16605460  0.69999740  1
  Ge  Ge1754  1  0.03237160  0.16605460  0.89999740  1
  Ge  Ge1755  1  0.03237160  0.36605460  0.09999740  1
  Ge  Ge1756  1  0.03237160  0.36605460  0.29999740  1
  Ge  Ge1757  1  0.03237160  0.36605460  0.49999740  1
  Ge  Ge1758  1  0.03237160  0.36605460  0.69999740  1
  Ge  Ge1759  1  0.03237160  0.36605460  0.89999740  1
  Ge  Ge1760  1  0.03237160  0.56605460  0.09999740  1
  Ge  Ge1761  1  0.03237160  0.56605460  0.29999740  1
  Ge  Ge1762  1  0.03237160  0.56605460  0.49999740  1
  Ge  Ge1763  1  0.03237160  0.56605460  0.69999740  1
  Ge  Ge1764  1  0.03237160  0.56605460  0.89999740  1
  Ge  Ge1765  1  0.03237160  0.76605460  0.09999740  1
  Ge  Ge1766  1  0.03237160  0.76605460  0.29999740  1
  Ge  Ge1767  1  0.03237160  0.76605460  0.49999740  1
  Ge  Ge1768  1  0.03237160  0.76605460  0.69999740  1
  Ge  Ge1769  1  0.03237160  0.76605460  0.89999740  1
  Ge  Ge1770  1  0.03237160  0.96605460  0.09999740  1
  Ge  Ge1771  1  0.03237160  0.96605460  0.29999740  1
  Ge  Ge1772  1  0.03237160  0.96605460  0.49999740  1
  Ge  Ge1773  1  0.03237160  0.96605460  0.69999740  1
  Ge  Ge1774  1  0.03237160  0.96605460  0.89999740  1
  Ge  Ge1775  1  0.23237160  0.16605460  0.09999740  1
  Ge  Ge1776  1  0.23237160  0.16605460  0.29999740  1
  Ge  Ge1777  1  0.23237160  0.16605460  0.49999740  1
  Ge  Ge1778  1  0.23237160  0.16605460  0.69999740  1
  Ge  Ge1779  1  0.23237160  0.16605460  0.89999740  1
  Ge  Ge1780  1  0.23237160  0.36605460  0.09999740  1
  Ge  Ge1781  1  0.23237160  0.36605460  0.29999740  1
  Ge  Ge1782  1  0.23237160  0.36605460  0.49999740  1
  Ge  Ge1783  1  0.23237160  0.36605460  0.69999740  1
  Ge  Ge1784  1  0.23237160  0.36605460  0.89999740  1
  Ge  Ge1785  1  0.23237160  0.56605460  0.09999740  1
  Ge  Ge1786  1  0.23237160  0.56605460  0.29999740  1
  Ge  Ge1787  1  0.23237160  0.56605460  0.49999740  1
  Ge  Ge1788  1  0.23237160  0.56605460  0.69999740  1
  Ge  Ge1789  1  0.23237160  0.56605460  0.89999740  1
  Ge  Ge1790  1  0.23237160  0.76605460  0.09999740  1
  Ge  Ge1791  1  0.23237160  0.76605460  0.29999740  1
  Ge  Ge1792  1  0.23237160  0.76605460  0.49999740  1
  Ge  Ge1793  1  0.23237160  0.76605460  0.69999740  1
  Ge  Ge1794  1  0.23237160  0.76605460  0.89999740  1
  Ge  Ge1795  1  0.23237160  0.96605460  0.09999740  1
  Ge  Ge1796  1  0.23237160  0.96605460  0.29999740  1
  Ge  Ge1797  1  0.23237160  0.96605460  0.49999740  1
  Ge  Ge1798  1  0.23237160  0.96605460  0.69999740  1
  Ge  Ge1799  1  0.23237160  0.96605460  0.89999740  1
  Ge  Ge1800  1  0.43237160  0.16605460  0.09999740  1
  Ge  Ge1801  1  0.43237160  0.16605460  0.29999740  1
  Ge  Ge1802  1  0.43237160  0.16605460  0.49999740  1
  Ge  Ge1803  1  0.43237160  0.16605460  0.69999740  1
  Ge  Ge1804  1  0.43237160  0.16605460  0.89999740  1
  Ge  Ge1805  1  0.43237160  0.36605460  0.09999740  1
  Ge  Ge1806  1  0.43237160  0.36605460  0.29999740  1
  Ge  Ge1807  1  0.43237160  0.36605460  0.49999740  1
  Ge  Ge1808  1  0.43237160  0.36605460  0.69999740  1
  Ge  Ge1809  1  0.43237160  0.36605460  0.89999740  1
  Ge  Ge1810  1  0.43237160  0.56605460  0.09999740  1
  Ge  Ge1811  1  0.43237160  0.56605460  0.29999740  1
  Ge  Ge1812  1  0.43237160  0.56605460  0.49999740  1
  Ge  Ge1813  1  0.43237160  0.56605460  0.69999740  1
  Ge  Ge1814  1  0.43237160  0.56605460  0.89999740  1
  Ge  Ge1815  1  0.43237160  0.76605460  0.09999740  1
  Ge  Ge1816  1  0.43237160  0.76605460  0.29999740  1
  Ge  Ge1817  1  0.43237160  0.76605460  0.49999740  1
  Ge  Ge1818  1  0.43237160  0.76605460  0.69999740  1
  Ge  Ge1819  1  0.43237160  0.76605460  0.89999740  1
  Ge  Ge1820  1  0.43237160  0.96605460  0.09999740  1
  Ge  Ge1821  1  0.43237160  0.96605460  0.29999740  1
  Ge  Ge1822  1  0.43237160  0.96605460  0.49999740  1
  Ge  Ge1823  1  0.43237160  0.96605460  0.69999740  1
  Ge  Ge1824  1  0.43237160  0.96605460  0.89999740  1
  Ge  Ge1825  1  0.63237160  0.16605460  0.09999740  1
  Ge  Ge1826  1  0.63237160  0.16605460  0.29999740  1
  Ge  Ge1827  1  0.63237160  0.16605460  0.49999740  1
  Ge  Ge1828  1  0.63237160  0.16605460  0.69999740  1
  Ge  Ge1829  1  0.63237160  0.16605460  0.89999740  1
  Ge  Ge1830  1  0.63237160  0.36605460  0.09999740  1
  Ge  Ge1831  1  0.63237160  0.36605460  0.29999740  1
  Ge  Ge1832  1  0.63237160  0.36605460  0.49999740  1
  Ge  Ge1833  1  0.63237160  0.36605460  0.69999740  1
  Ge  Ge1834  1  0.63237160  0.36605460  0.89999740  1
  Ge  Ge1835  1  0.63237160  0.56605460  0.09999740  1
  Ge  Ge1836  1  0.63237160  0.56605460  0.29999740  1
  Ge  Ge1837  1  0.63237160  0.56605460  0.49999740  1
  Ge  Ge1838  1  0.63237160  0.56605460  0.69999740  1
  Ge  Ge1839  1  0.63237160  0.56605460  0.89999740  1
  Ge  Ge1840  1  0.63237160  0.76605460  0.09999740  1
  Ge  Ge1841  1  0.63237160  0.76605460  0.29999740  1
  Ge  Ge1842  1  0.63237160  0.76605460  0.49999740  1
  Ge  Ge1843  1  0.63237160  0.76605460  0.69999740  1
  Ge  Ge1844  1  0.63237160  0.76605460  0.89999740  1
  Ge  Ge1845  1  0.63237160  0.96605460  0.09999740  1
  Ge  Ge1846  1  0.63237160  0.96605460  0.29999740  1
  Ge  Ge1847  1  0.63237160  0.96605460  0.49999740  1
  Ge  Ge1848  1  0.63237160  0.96605460  0.69999740  1
  Ge  Ge1849  1  0.63237160  0.96605460  0.89999740  1
  Ge  Ge1850  1  0.83237160  0.16605460  0.09999740  1
  Ge  Ge1851  1  0.83237160  0.16605460  0.29999740  1
  Ge  Ge1852  1  0.83237160  0.16605460  0.49999740  1
  Ge  Ge1853  1  0.83237160  0.16605460  0.69999740  1
  Ge  Ge1854  1  0.83237160  0.16605460  0.89999740  1
  Ge  Ge1855  1  0.83237160  0.36605460  0.09999740  1
  Ge  Ge1856  1  0.83237160  0.36605460  0.29999740  1
  Ge  Ge1857  1  0.83237160  0.36605460  0.49999740  1
  Ge  Ge1858  1  0.83237160  0.36605460  0.69999740  1
  Ge  Ge1859  1  0.83237160  0.36605460  0.89999740  1
  Ge  Ge1860  1  0.83237160  0.56605460  0.09999740  1
  Ge  Ge1861  1  0.83237160  0.56605460  0.29999740  1
  Ge  Ge1862  1  0.83237160  0.56605460  0.49999740  1
  Ge  Ge1863  1  0.83237160  0.56605460  0.69999740  1
  Ge  Ge1864  1  0.83237160  0.56605460  0.89999740  1
  Ge  Ge1865  1  0.83237160  0.76605460  0.09999740  1
  Ge  Ge1866  1  0.83237160  0.76605460  0.29999740  1
  Ge  Ge1867  1  0.83237160  0.76605460  0.49999740  1
  Ge  Ge1868  1  0.83237160  0.76605460  0.69999740  1
  Ge  Ge1869  1  0.83237160  0.76605460  0.89999740  1
  Ge  Ge1870  1  0.83237160  0.96605460  0.09999740  1
  Ge  Ge1871  1  0.83237160  0.96605460  0.29999740  1
  Ge  Ge1872  1  0.83237160  0.96605460  0.49999740  1
  Ge  Ge1873  1  0.83237160  0.96605460  0.69999740  1
  Ge  Ge1874  1  0.83237160  0.96605460  0.89999740  1
  Ge  Ge1875  1  0.13237060  0.06605440  0.09999880  1
  Ge  Ge1876  1  0.13237060  0.06605440  0.29999880  1
  Ge  Ge1877  1  0.13237060  0.06605440  0.49999880  1
  Ge  Ge1878  1  0.13237060  0.06605440  0.69999880  1
  Ge  Ge1879  1  0.13237060  0.06605440  0.89999880  1
  Ge  Ge1880  1  0.13237060  0.26605440  0.09999880  1
  Ge  Ge1881  1  0.13237060  0.26605440  0.29999880  1
  Ge  Ge1882  1  0.13237060  0.26605440  0.49999880  1
  Ge  Ge1883  1  0.13237060  0.26605440  0.69999880  1
  Ge  Ge1884  1  0.13237060  0.26605440  0.89999880  1
  Ge  Ge1885  1  0.13237060  0.46605440  0.09999880  1
  Ge  Ge1886  1  0.13237060  0.46605440  0.29999880  1
  Ge  Ge1887  1  0.13237060  0.46605440  0.49999880  1
  Ge  Ge1888  1  0.13237060  0.46605440  0.69999880  1
  Ge  Ge1889  1  0.13237060  0.46605440  0.89999880  1
  Ge  Ge1890  1  0.13237060  0.66605440  0.09999880  1
  Ge  Ge1891  1  0.13237060  0.66605440  0.29999880  1
  Ge  Ge1892  1  0.13237060  0.66605440  0.49999880  1
  Ge  Ge1893  1  0.13237060  0.66605440  0.69999880  1
  Ge  Ge1894  1  0.13237060  0.66605440  0.89999880  1
  Ge  Ge1895  1  0.13237060  0.86605440  0.09999880  1
  Ge  Ge1896  1  0.13237060  0.86605440  0.29999880  1
  Ge  Ge1897  1  0.13237060  0.86605440  0.49999880  1
  Ge  Ge1898  1  0.13237060  0.86605440  0.69999880  1
  Ge  Ge1899  1  0.13237060  0.86605440  0.89999880  1
  Ge  Ge1900  1  0.33237060  0.06605440  0.09999880  1
  Ge  Ge1901  1  0.33237060  0.06605440  0.29999880  1
  Ge  Ge1902  1  0.33237060  0.06605440  0.49999880  1
  Ge  Ge1903  1  0.33237060  0.06605440  0.69999880  1
  Ge  Ge1904  1  0.33237060  0.06605440  0.89999880  1
  Ge  Ge1905  1  0.33237060  0.26605440  0.09999880  1
  Ge  Ge1906  1  0.33237060  0.26605440  0.29999880  1
  Ge  Ge1907  1  0.33237060  0.26605440  0.49999880  1
  Ge  Ge1908  1  0.33237060  0.26605440  0.69999880  1
  Ge  Ge1909  1  0.33237060  0.26605440  0.89999880  1
  Ge  Ge1910  1  0.33237060  0.46605440  0.09999880  1
  Ge  Ge1911  1  0.33237060  0.46605440  0.29999880  1
  Ge  Ge1912  1  0.33237060  0.46605440  0.49999880  1
  Ge  Ge1913  1  0.33237060  0.46605440  0.69999880  1
  Ge  Ge1914  1  0.33237060  0.46605440  0.89999880  1
  Ge  Ge1915  1  0.33237060  0.66605440  0.09999880  1
  Ge  Ge1916  1  0.33237060  0.66605440  0.29999880  1
  Ge  Ge1917  1  0.33237060  0.66605440  0.49999880  1
  Ge  Ge1918  1  0.33237060  0.66605440  0.69999880  1
  Ge  Ge1919  1  0.33237060  0.66605440  0.89999880  1
  Ge  Ge1920  1  0.33237060  0.86605440  0.09999880  1
  Ge  Ge1921  1  0.33237060  0.86605440  0.29999880  1
  Ge  Ge1922  1  0.33237060  0.86605440  0.49999880  1
  Ge  Ge1923  1  0.33237060  0.86605440  0.69999880  1
  Ge  Ge1924  1  0.33237060  0.86605440  0.89999880  1
  Ge  Ge1925  1  0.53237060  0.06605440  0.09999880  1
  Ge  Ge1926  1  0.53237060  0.06605440  0.29999880  1
  Ge  Ge1927  1  0.53237060  0.06605440  0.49999880  1
  Ge  Ge1928  1  0.53237060  0.06605440  0.69999880  1
  Ge  Ge1929  1  0.53237060  0.06605440  0.89999880  1
  Ge  Ge1930  1  0.53237060  0.26605440  0.09999880  1
  Ge  Ge1931  1  0.53237060  0.26605440  0.29999880  1
  Ge  Ge1932  1  0.53237060  0.26605440  0.49999880  1
  Ge  Ge1933  1  0.53237060  0.26605440  0.69999880  1
  Ge  Ge1934  1  0.53237060  0.26605440  0.89999880  1
  Ge  Ge1935  1  0.53237060  0.46605440  0.09999880  1
  Ge  Ge1936  1  0.53237060  0.46605440  0.29999880  1
  Ge  Ge1937  1  0.53237060  0.46605440  0.49999880  1
  Ge  Ge1938  1  0.53237060  0.46605440  0.69999880  1
  Ge  Ge1939  1  0.53237060  0.46605440  0.89999880  1
  Ge  Ge1940  1  0.53237060  0.66605440  0.09999880  1
  Ge  Ge1941  1  0.53237060  0.66605440  0.29999880  1
  Ge  Ge1942  1  0.53237060  0.66605440  0.49999880  1
  Ge  Ge1943  1  0.53237060  0.66605440  0.69999880  1
  Ge  Ge1944  1  0.53237060  0.66605440  0.89999880  1
  Ge  Ge1945  1  0.53237060  0.86605440  0.09999880  1
  Ge  Ge1946  1  0.53237060  0.86605440  0.29999880  1
  Ge  Ge1947  1  0.53237060  0.86605440  0.49999880  1
  Ge  Ge1948  1  0.53237060  0.86605440  0.69999880  1
  Ge  Ge1949  1  0.53237060  0.86605440  0.89999880  1
  Ge  Ge1950  1  0.73237060  0.06605440  0.09999880  1
  Ge  Ge1951  1  0.73237060  0.06605440  0.29999880  1
  Ge  Ge1952  1  0.73237060  0.06605440  0.49999880  1
  Ge  Ge1953  1  0.73237060  0.06605440  0.69999880  1
  Ge  Ge1954  1  0.73237060  0.06605440  0.89999880  1
  Ge  Ge1955  1  0.73237060  0.26605440  0.09999880  1
  Ge  Ge1956  1  0.73237060  0.26605440  0.29999880  1
  Ge  Ge1957  1  0.73237060  0.26605440  0.49999880  1
  Ge  Ge1958  1  0.73237060  0.26605440  0.69999880  1
  Ge  Ge1959  1  0.73237060  0.26605440  0.89999880  1
  Ge  Ge1960  1  0.73237060  0.46605440  0.09999880  1
  Ge  Ge1961  1  0.73237060  0.46605440  0.29999880  1
  Ge  Ge1962  1  0.73237060  0.46605440  0.49999880  1
  Ge  Ge1963  1  0.73237060  0.46605440  0.69999880  1
  Ge  Ge1964  1  0.73237060  0.46605440  0.89999880  1
  Ge  Ge1965  1  0.73237060  0.66605440  0.09999880  1
  Ge  Ge1966  1  0.73237060  0.66605440  0.29999880  1
  Ge  Ge1967  1  0.73237060  0.66605440  0.49999880  1
  Ge  Ge1968  1  0.73237060  0.66605440  0.69999880  1
  Ge  Ge1969  1  0.73237060  0.66605440  0.89999880  1
  Ge  Ge1970  1  0.73237060  0.86605440  0.09999880  1
  Ge  Ge1971  1  0.73237060  0.86605440  0.29999880  1
  Ge  Ge1972  1  0.73237060  0.86605440  0.49999880  1
  Ge  Ge1973  1  0.73237060  0.86605440  0.69999880  1
  Ge  Ge1974  1  0.73237060  0.86605440  0.89999880  1
  Ge  Ge1975  1  0.93237060  0.06605440  0.09999880  1
  Ge  Ge1976  1  0.93237060  0.06605440  0.29999880  1
  Ge  Ge1977  1  0.93237060  0.06605440  0.49999880  1
  Ge  Ge1978  1  0.93237060  0.06605440  0.69999880  1
  Ge  Ge1979  1  0.93237060  0.06605440  0.89999880  1
  Ge  Ge1980  1  0.93237060  0.26605440  0.09999880  1
  Ge  Ge1981  1  0.93237060  0.26605440  0.29999880  1
  Ge  Ge1982  1  0.93237060  0.26605440  0.49999880  1
  Ge  Ge1983  1  0.93237060  0.26605440  0.69999880  1
  Ge  Ge1984  1  0.93237060  0.26605440  0.89999880  1
  Ge  Ge1985  1  0.93237060  0.46605440  0.09999880  1
  Ge  Ge1986  1  0.93237060  0.46605440  0.29999880  1
  Ge  Ge1987  1  0.93237060  0.46605440  0.49999880  1
  Ge  Ge1988  1  0.93237060  0.46605440  0.69999880  1
  Ge  Ge1989  1  0.93237060  0.46605440  0.89999880  1
  Ge  Ge1990  1  0.93237060  0.66605440  0.09999880  1
  Ge  Ge1991  1  0.93237060  0.66605440  0.29999880  1
  Ge  Ge1992  1  0.93237060  0.66605440  0.49999880  1
  Ge  Ge1993  1  0.93237060  0.66605440  0.69999880  1
  Ge  Ge1994  1  0.93237060  0.66605440  0.89999880  1
  Ge  Ge1995  1  0.93237060  0.86605440  0.09999880  1
  Ge  Ge1996  1  0.93237060  0.86605440  0.29999880  1
  Ge  Ge1997  1  0.93237060  0.86605440  0.49999880  1
  Ge  Ge1998  1  0.93237060  0.86605440  0.69999880  1
  Ge  Ge1999  1  0.93237060  0.86605440  0.89999880  1
  O  O2000  1  0.04571360  0.17373480  0.00001440  1
  O  O2001  1  0.04571360  0.17373480  0.20001440  1
  O  O2002  1  0.04571360  0.17373480  0.40001440  1
  O  O2003  1  0.04571360  0.17373480  0.60001440  1
  O  O2004  1  0.04571360  0.17373480  0.80001440  1
  O  O2005  1  0.04571360  0.37373480  0.00001440  1
  O  O2006  1  0.04571360  0.37373480  0.20001440  1
  O  O2007  1  0.04571360  0.37373480  0.40001440  1
  O  O2008  1  0.04571360  0.37373480  0.60001440  1
  O  O2009  1  0.04571360  0.37373480  0.80001440  1
  O  O2010  1  0.04571360  0.57373480  0.00001440  1
  O  O2011  1  0.04571360  0.57373480  0.20001440  1
  O  O2012  1  0.04571360  0.57373480  0.40001440  1
  O  O2013  1  0.04571360  0.57373480  0.60001440  1
  O  O2014  1  0.04571360  0.57373480  0.80001440  1
  O  O2015  1  0.04571360  0.77373480  0.00001440  1
  O  O2016  1  0.04571360  0.77373480  0.20001440  1
  O  O2017  1  0.04571360  0.77373480  0.40001440  1
  O  O2018  1  0.04571360  0.77373480  0.60001440  1
  O  O2019  1  0.04571360  0.77373480  0.80001440  1
  O  O2020  1  0.04571360  0.97373480  0.00001440  1
  O  O2021  1  0.04571360  0.97373480  0.20001440  1
  O  O2022  1  0.04571360  0.97373480  0.40001440  1
  O  O2023  1  0.04571360  0.97373480  0.60001440  1
  O  O2024  1  0.04571360  0.97373480  0.80001440  1
  O  O2025  1  0.24571360  0.17373480  0.00001440  1
  O  O2026  1  0.24571360  0.17373480  0.20001440  1
  O  O2027  1  0.24571360  0.17373480  0.40001440  1
  O  O2028  1  0.24571360  0.17373480  0.60001440  1
  O  O2029  1  0.24571360  0.17373480  0.80001440  1
  O  O2030  1  0.24571360  0.37373480  0.00001440  1
  O  O2031  1  0.24571360  0.37373480  0.20001440  1
  O  O2032  1  0.24571360  0.37373480  0.40001440  1
  O  O2033  1  0.24571360  0.37373480  0.60001440  1
  O  O2034  1  0.24571360  0.37373480  0.80001440  1
  O  O2035  1  0.24571360  0.57373480  0.00001440  1
  O  O2036  1  0.24571360  0.57373480  0.20001440  1
  O  O2037  1  0.24571360  0.57373480  0.40001440  1
  O  O2038  1  0.24571360  0.57373480  0.60001440  1
  O  O2039  1  0.24571360  0.57373480  0.80001440  1
  O  O2040  1  0.24571360  0.77373480  0.00001440  1
  O  O2041  1  0.24571360  0.77373480  0.20001440  1
  O  O2042  1  0.24571360  0.77373480  0.40001440  1
  O  O2043  1  0.24571360  0.77373480  0.60001440  1
  O  O2044  1  0.24571360  0.77373480  0.80001440  1
  O  O2045  1  0.24571360  0.97373480  0.00001440  1
  O  O2046  1  0.24571360  0.97373480  0.20001440  1
  O  O2047  1  0.24571360  0.97373480  0.40001440  1
  O  O2048  1  0.24571360  0.97373480  0.60001440  1
  O  O2049  1  0.24571360  0.97373480  0.80001440  1
  O  O2050  1  0.44571360  0.17373480  0.00001440  1
  O  O2051  1  0.44571360  0.17373480  0.20001440  1
  O  O2052  1  0.44571360  0.17373480  0.40001440  1
  O  O2053  1  0.44571360  0.17373480  0.60001440  1
  O  O2054  1  0.44571360  0.17373480  0.80001440  1
  O  O2055  1  0.44571360  0.37373480  0.00001440  1
  O  O2056  1  0.44571360  0.37373480  0.20001440  1
  O  O2057  1  0.44571360  0.37373480  0.40001440  1
  O  O2058  1  0.44571360  0.37373480  0.60001440  1
  O  O2059  1  0.44571360  0.37373480  0.80001440  1
  O  O2060  1  0.44571360  0.57373480  0.00001440  1
  O  O2061  1  0.44571360  0.57373480  0.20001440  1
  O  O2062  1  0.44571360  0.57373480  0.40001440  1
  O  O2063  1  0.44571360  0.57373480  0.60001440  1
  O  O2064  1  0.44571360  0.57373480  0.80001440  1
  O  O2065  1  0.44571360  0.77373480  0.00001440  1
  O  O2066  1  0.44571360  0.77373480  0.20001440  1
  O  O2067  1  0.44571360  0.77373480  0.40001440  1
  O  O2068  1  0.44571360  0.77373480  0.60001440  1
  O  O2069  1  0.44571360  0.77373480  0.80001440  1
  O  O2070  1  0.44571360  0.97373480  0.00001440  1
  O  O2071  1  0.44571360  0.97373480  0.20001440  1
  O  O2072  1  0.44571360  0.97373480  0.40001440  1
  O  O2073  1  0.44571360  0.97373480  0.60001440  1
  O  O2074  1  0.44571360  0.97373480  0.80001440  1
  O  O2075  1  0.64571360  0.17373480  0.00001440  1
  O  O2076  1  0.64571360  0.17373480  0.20001440  1
  O  O2077  1  0.64571360  0.17373480  0.40001440  1
  O  O2078  1  0.64571360  0.17373480  0.60001440  1
  O  O2079  1  0.64571360  0.17373480  0.80001440  1
  O  O2080  1  0.64571360  0.37373480  0.00001440  1
  O  O2081  1  0.64571360  0.37373480  0.20001440  1
  O  O2082  1  0.64571360  0.37373480  0.40001440  1
  O  O2083  1  0.64571360  0.37373480  0.60001440  1
  O  O2084  1  0.64571360  0.37373480  0.80001440  1
  O  O2085  1  0.64571360  0.57373480  0.00001440  1
  O  O2086  1  0.64571360  0.57373480  0.20001440  1
  O  O2087  1  0.64571360  0.57373480  0.40001440  1
  O  O2088  1  0.64571360  0.57373480  0.60001440  1
  O  O2089  1  0.64571360  0.57373480  0.80001440  1
  O  O2090  1  0.64571360  0.77373480  0.00001440  1
  O  O2091  1  0.64571360  0.77373480  0.20001440  1
  O  O2092  1  0.64571360  0.77373480  0.40001440  1
  O  O2093  1  0.64571360  0.77373480  0.60001440  1
  O  O2094  1  0.64571360  0.77373480  0.80001440  1
  O  O2095  1  0.64571360  0.97373480  0.00001440  1
  O  O2096  1  0.64571360  0.97373480  0.20001440  1
  O  O2097  1  0.64571360  0.97373480  0.40001440  1
  O  O2098  1  0.64571360  0.97373480  0.60001440  1
  O  O2099  1  0.64571360  0.97373480  0.80001440  1
  O  O2100  1  0.84571360  0.17373480  0.00001440  1
  O  O2101  1  0.84571360  0.17373480  0.20001440  1
  O  O2102  1  0.84571360  0.17373480  0.40001440  1
  O  O2103  1  0.84571360  0.17373480  0.60001440  1
  O  O2104  1  0.84571360  0.17373480  0.80001440  1
  O  O2105  1  0.84571360  0.37373480  0.00001440  1
  O  O2106  1  0.84571360  0.37373480  0.20001440  1
  O  O2107  1  0.84571360  0.37373480  0.40001440  1
  O  O2108  1  0.84571360  0.37373480  0.60001440  1
  O  O2109  1  0.84571360  0.37373480  0.80001440  1
  O  O2110  1  0.84571360  0.57373480  0.00001440  1
  O  O2111  1  0.84571360  0.57373480  0.20001440  1
  O  O2112  1  0.84571360  0.57373480  0.40001440  1
  O  O2113  1  0.84571360  0.57373480  0.60001440  1
  O  O2114  1  0.84571360  0.57373480  0.80001440  1
  O  O2115  1  0.84571360  0.77373480  0.00001440  1
  O  O2116  1  0.84571360  0.77373480  0.20001440  1
  O  O2117  1  0.84571360  0.77373480  0.40001440  1
  O  O2118  1  0.84571360  0.77373480  0.60001440  1
  O  O2119  1  0.84571360  0.77373480  0.80001440  1
  O  O2120  1  0.84571360  0.97373480  0.00001440  1
  O  O2121  1  0.84571360  0.97373480  0.20001440  1
  O  O2122  1  0.84571360  0.97373480  0.40001440  1
  O  O2123  1  0.84571360  0.97373480  0.60001440  1
  O  O2124  1  0.84571360  0.97373480  0.80001440  1
  O  O2125  1  0.14571400  0.07373540  0.00001360  1
  O  O2126  1  0.14571400  0.07373540  0.20001360  1
  O  O2127  1  0.14571400  0.07373540  0.40001360  1
  O  O2128  1  0.14571400  0.07373540  0.60001360  1
  O  O2129  1  0.14571400  0.07373540  0.80001360  1
  O  O2130  1  0.14571400  0.27373540  0.00001360  1
  O  O2131  1  0.14571400  0.27373540  0.20001360  1
  O  O2132  1  0.14571400  0.27373540  0.40001360  1
  O  O2133  1  0.14571400  0.27373540  0.60001360  1
  O  O2134  1  0.14571400  0.27373540  0.80001360  1
  O  O2135  1  0.14571400  0.47373540  0.00001360  1
  O  O2136  1  0.14571400  0.47373540  0.20001360  1
  O  O2137  1  0.14571400  0.47373540  0.40001360  1
  O  O2138  1  0.14571400  0.47373540  0.60001360  1
  O  O2139  1  0.14571400  0.47373540  0.80001360  1
  O  O2140  1  0.14571400  0.67373540  0.00001360  1
  O  O2141  1  0.14571400  0.67373540  0.20001360  1
  O  O2142  1  0.14571400  0.67373540  0.40001360  1
  O  O2143  1  0.14571400  0.67373540  0.60001360  1
  O  O2144  1  0.14571400  0.67373540  0.80001360  1
  O  O2145  1  0.14571400  0.87373540  0.00001360  1
  O  O2146  1  0.14571400  0.87373540  0.20001360  1
  O  O2147  1  0.14571400  0.87373540  0.40001360  1
  O  O2148  1  0.14571400  0.87373540  0.60001360  1
  O  O2149  1  0.14571400  0.87373540  0.80001360  1
  O  O2150  1  0.34571400  0.07373540  0.00001360  1
  O  O2151  1  0.34571400  0.07373540  0.20001360  1
  O  O2152  1  0.34571400  0.07373540  0.40001360  1
  O  O2153  1  0.34571400  0.07373540  0.60001360  1
  O  O2154  1  0.34571400  0.07373540  0.80001360  1
  O  O2155  1  0.34571400  0.27373540  0.00001360  1
  O  O2156  1  0.34571400  0.27373540  0.20001360  1
  O  O2157  1  0.34571400  0.27373540  0.40001360  1
  O  O2158  1  0.34571400  0.27373540  0.60001360  1
  O  O2159  1  0.34571400  0.27373540  0.80001360  1
  O  O2160  1  0.34571400  0.47373540  0.00001360  1
  O  O2161  1  0.34571400  0.47373540  0.20001360  1
  O  O2162  1  0.34571400  0.47373540  0.40001360  1
  O  O2163  1  0.34571400  0.47373540  0.60001360  1
  O  O2164  1  0.34571400  0.47373540  0.80001360  1
  O  O2165  1  0.34571400  0.67373540  0.00001360  1
  O  O2166  1  0.34571400  0.67373540  0.20001360  1
  O  O2167  1  0.34571400  0.67373540  0.40001360  1
  O  O2168  1  0.34571400  0.67373540  0.60001360  1
  O  O2169  1  0.34571400  0.67373540  0.80001360  1
  O  O2170  1  0.34571400  0.87373540  0.00001360  1
  O  O2171  1  0.34571400  0.87373540  0.20001360  1
  O  O2172  1  0.34571400  0.87373540  0.40001360  1
  O  O2173  1  0.34571400  0.87373540  0.60001360  1
  O  O2174  1  0.34571400  0.87373540  0.80001360  1
  O  O2175  1  0.54571400  0.07373540  0.00001360  1
  O  O2176  1  0.54571400  0.07373540  0.20001360  1
  O  O2177  1  0.54571400  0.07373540  0.40001360  1
  O  O2178  1  0.54571400  0.07373540  0.60001360  1
  O  O2179  1  0.54571400  0.07373540  0.80001360  1
  O  O2180  1  0.54571400  0.27373540  0.00001360  1
  O  O2181  1  0.54571400  0.27373540  0.20001360  1
  O  O2182  1  0.54571400  0.27373540  0.40001360  1
  O  O2183  1  0.54571400  0.27373540  0.60001360  1
  O  O2184  1  0.54571400  0.27373540  0.80001360  1
  O  O2185  1  0.54571400  0.47373540  0.00001360  1
  O  O2186  1  0.54571400  0.47373540  0.20001360  1
  O  O2187  1  0.54571400  0.47373540  0.40001360  1
  O  O2188  1  0.54571400  0.47373540  0.60001360  1
  O  O2189  1  0.54571400  0.47373540  0.80001360  1
  O  O2190  1  0.54571400  0.67373540  0.00001360  1
  O  O2191  1  0.54571400  0.67373540  0.20001360  1
  O  O2192  1  0.54571400  0.67373540  0.40001360  1
  O  O2193  1  0.54571400  0.67373540  0.60001360  1
  O  O2194  1  0.54571400  0.67373540  0.80001360  1
  O  O2195  1  0.54571400  0.87373540  0.00001360  1
  O  O2196  1  0.54571400  0.87373540  0.20001360  1
  O  O2197  1  0.54571400  0.87373540  0.40001360  1
  O  O2198  1  0.54571400  0.87373540  0.60001360  1
  O  O2199  1  0.54571400  0.87373540  0.80001360  1
  O  O2200  1  0.74571400  0.07373540  0.00001360  1
  O  O2201  1  0.74571400  0.07373540  0.20001360  1
  O  O2202  1  0.74571400  0.07373540  0.40001360  1
  O  O2203  1  0.74571400  0.07373540  0.60001360  1
  O  O2204  1  0.74571400  0.07373540  0.80001360  1
  O  O2205  1  0.74571400  0.27373540  0.00001360  1
  O  O2206  1  0.74571400  0.27373540  0.20001360  1
  O  O2207  1  0.74571400  0.27373540  0.40001360  1
  O  O2208  1  0.74571400  0.27373540  0.60001360  1
  O  O2209  1  0.74571400  0.27373540  0.80001360  1
  O  O2210  1  0.74571400  0.47373540  0.00001360  1
  O  O2211  1  0.74571400  0.47373540  0.20001360  1
  O  O2212  1  0.74571400  0.47373540  0.40001360  1
  O  O2213  1  0.74571400  0.47373540  0.60001360  1
  O  O2214  1  0.74571400  0.47373540  0.80001360  1
  O  O2215  1  0.74571400  0.67373540  0.00001360  1
  O  O2216  1  0.74571400  0.67373540  0.20001360  1
  O  O2217  1  0.74571400  0.67373540  0.40001360  1
  O  O2218  1  0.74571400  0.67373540  0.60001360  1
  O  O2219  1  0.74571400  0.67373540  0.80001360  1
  O  O2220  1  0.74571400  0.87373540  0.00001360  1
  O  O2221  1  0.74571400  0.87373540  0.20001360  1
  O  O2222  1  0.74571400  0.87373540  0.40001360  1
  O  O2223  1  0.74571400  0.87373540  0.60001360  1
  O  O2224  1  0.74571400  0.87373540  0.80001360  1
  O  O2225  1  0.94571400  0.07373540  0.00001360  1
  O  O2226  1  0.94571400  0.07373540  0.20001360  1
  O  O2227  1  0.94571400  0.07373540  0.40001360  1
  O  O2228  1  0.94571400  0.07373540  0.60001360  1
  O  O2229  1  0.94571400  0.07373540  0.80001360  1
  O  O2230  1  0.94571400  0.27373540  0.00001360  1
  O  O2231  1  0.94571400  0.27373540  0.20001360  1
  O  O2232  1  0.94571400  0.27373540  0.40001360  1
  O  O2233  1  0.94571400  0.27373540  0.60001360  1
  O  O2234  1  0.94571400  0.27373540  0.80001360  1
  O  O2235  1  0.94571400  0.47373540  0.00001360  1
  O  O2236  1  0.94571400  0.47373540  0.20001360  1
  O  O2237  1  0.94571400  0.47373540  0.40001360  1
  O  O2238  1  0.94571400  0.47373540  0.60001360  1
  O  O2239  1  0.94571400  0.47373540  0.80001360  1
  O  O2240  1  0.94571400  0.67373540  0.00001360  1
  O  O2241  1  0.94571400  0.67373540  0.20001360  1
  O  O2242  1  0.94571400  0.67373540  0.40001360  1
  O  O2243  1  0.94571400  0.67373540  0.60001360  1
  O  O2244  1  0.94571400  0.67373540  0.80001360  1
  O  O2245  1  0.94571400  0.87373540  0.00001360  1
  O  O2246  1  0.94571400  0.87373540  0.20001360  1
  O  O2247  1  0.94571400  0.87373540  0.40001360  1
  O  O2248  1  0.94571400  0.87373540  0.60001360  1
  O  O2249  1  0.94571400  0.87373540  0.80001360  1
  O  O2250  1  0.07373740  0.14571580  0.10000940  1
  O  O2251  1  0.07373740  0.14571580  0.30000940  1
  O  O2252  1  0.07373740  0.14571580  0.50000940  1
  O  O2253  1  0.07373740  0.14571580  0.70000940  1
  O  O2254  1  0.07373740  0.14571580  0.90000940  1
  O  O2255  1  0.07373740  0.34571580  0.10000940  1
  O  O2256  1  0.07373740  0.34571580  0.30000940  1
  O  O2257  1  0.07373740  0.34571580  0.50000940  1
  O  O2258  1  0.07373740  0.34571580  0.70000940  1
  O  O2259  1  0.07373740  0.34571580  0.90000940  1
  O  O2260  1  0.07373740  0.54571580  0.10000940  1
  O  O2261  1  0.07373740  0.54571580  0.30000940  1
  O  O2262  1  0.07373740  0.54571580  0.50000940  1
  O  O2263  1  0.07373740  0.54571580  0.70000940  1
  O  O2264  1  0.07373740  0.54571580  0.90000940  1
  O  O2265  1  0.07373740  0.74571580  0.10000940  1
  O  O2266  1  0.07373740  0.74571580  0.30000940  1
  O  O2267  1  0.07373740  0.74571580  0.50000940  1
  O  O2268  1  0.07373740  0.74571580  0.70000940  1
  O  O2269  1  0.07373740  0.74571580  0.90000940  1
  O  O2270  1  0.07373740  0.94571580  0.10000940  1
  O  O2271  1  0.07373740  0.94571580  0.30000940  1
  O  O2272  1  0.07373740  0.94571580  0.50000940  1
  O  O2273  1  0.07373740  0.94571580  0.70000940  1
  O  O2274  1  0.07373740  0.94571580  0.90000940  1
  O  O2275  1  0.27373740  0.14571580  0.10000940  1
  O  O2276  1  0.27373740  0.14571580  0.30000940  1
  O  O2277  1  0.27373740  0.14571580  0.50000940  1
  O  O2278  1  0.27373740  0.14571580  0.70000940  1
  O  O2279  1  0.27373740  0.14571580  0.90000940  1
  O  O2280  1  0.27373740  0.34571580  0.10000940  1
  O  O2281  1  0.27373740  0.34571580  0.30000940  1
  O  O2282  1  0.27373740  0.34571580  0.50000940  1
  O  O2283  1  0.27373740  0.34571580  0.70000940  1
  O  O2284  1  0.27373740  0.34571580  0.90000940  1
  O  O2285  1  0.27373740  0.54571580  0.10000940  1
  O  O2286  1  0.27373740  0.54571580  0.30000940  1
  O  O2287  1  0.27373740  0.54571580  0.50000940  1
  O  O2288  1  0.27373740  0.54571580  0.70000940  1
  O  O2289  1  0.27373740  0.54571580  0.90000940  1
  O  O2290  1  0.27373740  0.74571580  0.10000940  1
  O  O2291  1  0.27373740  0.74571580  0.30000940  1
  O  O2292  1  0.27373740  0.74571580  0.50000940  1
  O  O2293  1  0.27373740  0.74571580  0.70000940  1
  O  O2294  1  0.27373740  0.74571580  0.90000940  1
  O  O2295  1  0.27373740  0.94571580  0.10000940  1
  O  O2296  1  0.27373740  0.94571580  0.30000940  1
  O  O2297  1  0.27373740  0.94571580  0.50000940  1
  O  O2298  1  0.27373740  0.94571580  0.70000940  1
  O  O2299  1  0.27373740  0.94571580  0.90000940  1
  O  O2300  1  0.47373740  0.14571580  0.10000940  1
  O  O2301  1  0.47373740  0.14571580  0.30000940  1
  O  O2302  1  0.47373740  0.14571580  0.50000940  1
  O  O2303  1  0.47373740  0.14571580  0.70000940  1
  O  O2304  1  0.47373740  0.14571580  0.90000940  1
  O  O2305  1  0.47373740  0.34571580  0.10000940  1
  O  O2306  1  0.47373740  0.34571580  0.30000940  1
  O  O2307  1  0.47373740  0.34571580  0.50000940  1
  O  O2308  1  0.47373740  0.34571580  0.70000940  1
  O  O2309  1  0.47373740  0.34571580  0.90000940  1
  O  O2310  1  0.47373740  0.54571580  0.10000940  1
  O  O2311  1  0.47373740  0.54571580  0.30000940  1
  O  O2312  1  0.47373740  0.54571580  0.50000940  1
  O  O2313  1  0.47373740  0.54571580  0.70000940  1
  O  O2314  1  0.47373740  0.54571580  0.90000940  1
  O  O2315  1  0.47373740  0.74571580  0.10000940  1
  O  O2316  1  0.47373740  0.74571580  0.30000940  1
  O  O2317  1  0.47373740  0.74571580  0.50000940  1
  O  O2318  1  0.47373740  0.74571580  0.70000940  1
  O  O2319  1  0.47373740  0.74571580  0.90000940  1
  O  O2320  1  0.47373740  0.94571580  0.10000940  1
  O  O2321  1  0.47373740  0.94571580  0.30000940  1
  O  O2322  1  0.47373740  0.94571580  0.50000940  1
  O  O2323  1  0.47373740  0.94571580  0.70000940  1
  O  O2324  1  0.47373740  0.94571580  0.90000940  1
  O  O2325  1  0.67373740  0.14571580  0.10000940  1
  O  O2326  1  0.67373740  0.14571580  0.30000940  1
  O  O2327  1  0.67373740  0.14571580  0.50000940  1
  O  O2328  1  0.67373740  0.14571580  0.70000940  1
  O  O2329  1  0.67373740  0.14571580  0.90000940  1
  O  O2330  1  0.67373740  0.34571580  0.10000940  1
  O  O2331  1  0.67373740  0.34571580  0.30000940  1
  O  O2332  1  0.67373740  0.34571580  0.50000940  1
  O  O2333  1  0.67373740  0.34571580  0.70000940  1
  O  O2334  1  0.67373740  0.34571580  0.90000940  1
  O  O2335  1  0.67373740  0.54571580  0.10000940  1
  O  O2336  1  0.67373740  0.54571580  0.30000940  1
  O  O2337  1  0.67373740  0.54571580  0.50000940  1
  O  O2338  1  0.67373740  0.54571580  0.70000940  1
  O  O2339  1  0.67373740  0.54571580  0.90000940  1
  O  O2340  1  0.67373740  0.74571580  0.10000940  1
  O  O2341  1  0.67373740  0.74571580  0.30000940  1
  O  O2342  1  0.67373740  0.74571580  0.50000940  1
  O  O2343  1  0.67373740  0.74571580  0.70000940  1
  O  O2344  1  0.67373740  0.74571580  0.90000940  1
  O  O2345  1  0.67373740  0.94571580  0.10000940  1
  O  O2346  1  0.67373740  0.94571580  0.30000940  1
  O  O2347  1  0.67373740  0.94571580  0.50000940  1
  O  O2348  1  0.67373740  0.94571580  0.70000940  1
  O  O2349  1  0.67373740  0.94571580  0.90000940  1
  O  O2350  1  0.87373740  0.14571580  0.10000940  1
  O  O2351  1  0.87373740  0.14571580  0.30000940  1
  O  O2352  1  0.87373740  0.14571580  0.50000940  1
  O  O2353  1  0.87373740  0.14571580  0.70000940  1
  O  O2354  1  0.87373740  0.14571580  0.90000940  1
  O  O2355  1  0.87373740  0.34571580  0.10000940  1
  O  O2356  1  0.87373740  0.34571580  0.30000940  1
  O  O2357  1  0.87373740  0.34571580  0.50000940  1
  O  O2358  1  0.87373740  0.34571580  0.70000940  1
  O  O2359  1  0.87373740  0.34571580  0.90000940  1
  O  O2360  1  0.87373740  0.54571580  0.10000940  1
  O  O2361  1  0.87373740  0.54571580  0.30000940  1
  O  O2362  1  0.87373740  0.54571580  0.50000940  1
  O  O2363  1  0.87373740  0.54571580  0.70000940  1
  O  O2364  1  0.87373740  0.54571580  0.90000940  1
  O  O2365  1  0.87373740  0.74571580  0.10000940  1
  O  O2366  1  0.87373740  0.74571580  0.30000940  1
  O  O2367  1  0.87373740  0.74571580  0.50000940  1
  O  O2368  1  0.87373740  0.74571580  0.70000940  1
  O  O2369  1  0.87373740  0.74571580  0.90000940  1
  O  O2370  1  0.87373740  0.94571580  0.10000940  1
  O  O2371  1  0.87373740  0.94571580  0.30000940  1
  O  O2372  1  0.87373740  0.94571580  0.50000940  1
  O  O2373  1  0.87373740  0.94571580  0.70000940  1
  O  O2374  1  0.87373740  0.94571580  0.90000940  1
  O  O2375  1  0.17373560  0.04571460  0.10001220  1
  O  O2376  1  0.17373560  0.04571460  0.30001220  1
  O  O2377  1  0.17373560  0.04571460  0.50001220  1
  O  O2378  1  0.17373560  0.04571460  0.70001220  1
  O  O2379  1  0.17373560  0.04571460  0.90001220  1
  O  O2380  1  0.17373560  0.24571460  0.10001220  1
  O  O2381  1  0.17373560  0.24571460  0.30001220  1
  O  O2382  1  0.17373560  0.24571460  0.50001220  1
  O  O2383  1  0.17373560  0.24571460  0.70001220  1
  O  O2384  1  0.17373560  0.24571460  0.90001220  1
  O  O2385  1  0.17373560  0.44571460  0.10001220  1
  O  O2386  1  0.17373560  0.44571460  0.30001220  1
  O  O2387  1  0.17373560  0.44571460  0.50001220  1
  O  O2388  1  0.17373560  0.44571460  0.70001220  1
  O  O2389  1  0.17373560  0.44571460  0.90001220  1
  O  O2390  1  0.17373560  0.64571460  0.10001220  1
  O  O2391  1  0.17373560  0.64571460  0.30001220  1
  O  O2392  1  0.17373560  0.64571460  0.50001220  1
  O  O2393  1  0.17373560  0.64571460  0.70001220  1
  O  O2394  1  0.17373560  0.64571460  0.90001220  1
  O  O2395  1  0.17373560  0.84571460  0.10001220  1
  O  O2396  1  0.17373560  0.84571460  0.30001220  1
  O  O2397  1  0.17373560  0.84571460  0.50001220  1
  O  O2398  1  0.17373560  0.84571460  0.70001220  1
  O  O2399  1  0.17373560  0.84571460  0.90001220  1
  O  O2400  1  0.37373560  0.04571460  0.10001220  1
  O  O2401  1  0.37373560  0.04571460  0.30001220  1
  O  O2402  1  0.37373560  0.04571460  0.50001220  1
  O  O2403  1  0.37373560  0.04571460  0.70001220  1
  O  O2404  1  0.37373560  0.04571460  0.90001220  1
  O  O2405  1  0.37373560  0.24571460  0.10001220  1
  O  O2406  1  0.37373560  0.24571460  0.30001220  1
  O  O2407  1  0.37373560  0.24571460  0.50001220  1
  O  O2408  1  0.37373560  0.24571460  0.70001220  1
  O  O2409  1  0.37373560  0.24571460  0.90001220  1
  O  O2410  1  0.37373560  0.44571460  0.10001220  1
  O  O2411  1  0.37373560  0.44571460  0.30001220  1
  O  O2412  1  0.37373560  0.44571460  0.50001220  1
  O  O2413  1  0.37373560  0.44571460  0.70001220  1
  O  O2414  1  0.37373560  0.44571460  0.90001220  1
  O  O2415  1  0.37373560  0.64571460  0.10001220  1
  O  O2416  1  0.37373560  0.64571460  0.30001220  1
  O  O2417  1  0.37373560  0.64571460  0.50001220  1
  O  O2418  1  0.37373560  0.64571460  0.70001220  1
  O  O2419  1  0.37373560  0.64571460  0.90001220  1
  O  O2420  1  0.37373560  0.84571460  0.10001220  1
  O  O2421  1  0.37373560  0.84571460  0.30001220  1
  O  O2422  1  0.37373560  0.84571460  0.50001220  1
  O  O2423  1  0.37373560  0.84571460  0.70001220  1
  O  O2424  1  0.37373560  0.84571460  0.90001220  1
  O  O2425  1  0.57373560  0.04571460  0.10001220  1
  O  O2426  1  0.57373560  0.04571460  0.30001220  1
  O  O2427  1  0.57373560  0.04571460  0.50001220  1
  O  O2428  1  0.57373560  0.04571460  0.70001220  1
  O  O2429  1  0.57373560  0.04571460  0.90001220  1
  O  O2430  1  0.57373560  0.24571460  0.10001220  1
  O  O2431  1  0.57373560  0.24571460  0.30001220  1
  O  O2432  1  0.57373560  0.24571460  0.50001220  1
  O  O2433  1  0.57373560  0.24571460  0.70001220  1
  O  O2434  1  0.57373560  0.24571460  0.90001220  1
  O  O2435  1  0.57373560  0.44571460  0.10001220  1
  O  O2436  1  0.57373560  0.44571460  0.30001220  1
  O  O2437  1  0.57373560  0.44571460  0.50001220  1
  O  O2438  1  0.57373560  0.44571460  0.70001220  1
  O  O2439  1  0.57373560  0.44571460  0.90001220  1
  O  O2440  1  0.57373560  0.64571460  0.10001220  1
  O  O2441  1  0.57373560  0.64571460  0.30001220  1
  O  O2442  1  0.57373560  0.64571460  0.50001220  1
  O  O2443  1  0.57373560  0.64571460  0.70001220  1
  O  O2444  1  0.57373560  0.64571460  0.90001220  1
  O  O2445  1  0.57373560  0.84571460  0.10001220  1
  O  O2446  1  0.57373560  0.84571460  0.30001220  1
  O  O2447  1  0.57373560  0.84571460  0.50001220  1
  O  O2448  1  0.57373560  0.84571460  0.70001220  1
  O  O2449  1  0.57373560  0.84571460  0.90001220  1
  O  O2450  1  0.77373560  0.04571460  0.10001220  1
  O  O2451  1  0.77373560  0.04571460  0.30001220  1
  O  O2452  1  0.77373560  0.04571460  0.50001220  1
  O  O2453  1  0.77373560  0.04571460  0.70001220  1
  O  O2454  1  0.77373560  0.04571460  0.90001220  1
  O  O2455  1  0.77373560  0.24571460  0.10001220  1
  O  O2456  1  0.77373560  0.24571460  0.30001220  1
  O  O2457  1  0.77373560  0.24571460  0.50001220  1
  O  O2458  1  0.77373560  0.24571460  0.70001220  1
  O  O2459  1  0.77373560  0.24571460  0.90001220  1
  O  O2460  1  0.77373560  0.44571460  0.10001220  1
  O  O2461  1  0.77373560  0.44571460  0.30001220  1
  O  O2462  1  0.77373560  0.44571460  0.50001220  1
  O  O2463  1  0.77373560  0.44571460  0.70001220  1
  O  O2464  1  0.77373560  0.44571460  0.90001220  1
  O  O2465  1  0.77373560  0.64571460  0.10001220  1
  O  O2466  1  0.77373560  0.64571460  0.30001220  1
  O  O2467  1  0.77373560  0.64571460  0.50001220  1
  O  O2468  1  0.77373560  0.64571460  0.70001220  1
  O  O2469  1  0.77373560  0.64571460  0.90001220  1
  O  O2470  1  0.77373560  0.84571460  0.10001220  1
  O  O2471  1  0.77373560  0.84571460  0.30001220  1
  O  O2472  1  0.77373560  0.84571460  0.50001220  1
  O  O2473  1  0.77373560  0.84571460  0.70001220  1
  O  O2474  1  0.77373560  0.84571460  0.90001220  1
  O  O2475  1  0.97373560  0.04571460  0.10001220  1
  O  O2476  1  0.97373560  0.04571460  0.30001220  1
  O  O2477  1  0.97373560  0.04571460  0.50001220  1
  O  O2478  1  0.97373560  0.04571460  0.70001220  1
  O  O2479  1  0.97373560  0.04571460  0.90001220  1
  O  O2480  1  0.97373560  0.24571460  0.10001220  1
  O  O2481  1  0.97373560  0.24571460  0.30001220  1
  O  O2482  1  0.97373560  0.24571460  0.50001220  1
  O  O2483  1  0.97373560  0.24571460  0.70001220  1
  O  O2484  1  0.97373560  0.24571460  0.90001220  1
  O  O2485  1  0.97373560  0.44571460  0.10001220  1
  O  O2486  1  0.97373560  0.44571460  0.30001220  1
  O  O2487  1  0.97373560  0.44571460  0.50001220  1
  O  O2488  1  0.97373560  0.44571460  0.70001220  1
  O  O2489  1  0.97373560  0.44571460  0.90001220  1
  O  O2490  1  0.97373560  0.64571460  0.10001220  1
  O  O2491  1  0.97373560  0.64571460  0.30001220  1
  O  O2492  1  0.97373560  0.64571460  0.50001220  1
  O  O2493  1  0.97373560  0.64571460  0.70001220  1
  O  O2494  1  0.97373560  0.64571460  0.90001220  1
  O  O2495  1  0.97373560  0.84571460  0.10001220  1
  O  O2496  1  0.97373560  0.84571460  0.30001220  1
  O  O2497  1  0.97373560  0.84571460  0.50001220  1
  O  O2498  1  0.97373560  0.84571460  0.70001220  1
  O  O2499  1  0.97373560  0.84571460  0.90001220  1
  O  O2500  1  0.13181800  0.19676020  0.19999880  1
  O  O2501  1  0.13181800  0.19676020  0.39999880  1
  O  O2502  1  0.13181800  0.19676020  0.59999880  1
  O  O2503  1  0.13181800  0.19676020  0.79999880  1
  O  O2504  1  0.13181800  0.19676020  0.99999880  1
  O  O2505  1  0.13181800  0.39676020  0.19999880  1
  O  O2506  1  0.13181800  0.39676020  0.39999880  1
  O  O2507  1  0.13181800  0.39676020  0.59999880  1
  O  O2508  1  0.13181800  0.39676020  0.79999880  1
  O  O2509  1  0.13181800  0.39676020  0.99999880  1
  O  O2510  1  0.13181800  0.59676020  0.19999880  1
  O  O2511  1  0.13181800  0.59676020  0.39999880  1
  O  O2512  1  0.13181800  0.59676020  0.59999880  1
  O  O2513  1  0.13181800  0.59676020  0.79999880  1
  O  O2514  1  0.13181800  0.59676020  0.99999880  1
  O  O2515  1  0.13181800  0.79676020  0.19999880  1
  O  O2516  1  0.13181800  0.79676020  0.39999880  1
  O  O2517  1  0.13181800  0.79676020  0.59999880  1
  O  O2518  1  0.13181800  0.79676020  0.79999880  1
  O  O2519  1  0.13181800  0.79676020  0.99999880  1
  O  O2520  1  0.13181800  0.99676020  0.19999880  1
  O  O2521  1  0.13181800  0.99676020  0.39999880  1
  O  O2522  1  0.13181800  0.99676020  0.59999880  1
  O  O2523  1  0.13181800  0.99676020  0.79999880  1
  O  O2524  1  0.13181800  0.99676020  0.99999880  1
  O  O2525  1  0.33181800  0.19676020  0.19999880  1
  O  O2526  1  0.33181800  0.19676020  0.39999880  1
  O  O2527  1  0.33181800  0.19676020  0.59999880  1
  O  O2528  1  0.33181800  0.19676020  0.79999880  1
  O  O2529  1  0.33181800  0.19676020  0.99999880  1
  O  O2530  1  0.33181800  0.39676020  0.19999880  1
  O  O2531  1  0.33181800  0.39676020  0.39999880  1
  O  O2532  1  0.33181800  0.39676020  0.59999880  1
  O  O2533  1  0.33181800  0.39676020  0.79999880  1
  O  O2534  1  0.33181800  0.39676020  0.99999880  1
  O  O2535  1  0.33181800  0.59676020  0.19999880  1
  O  O2536  1  0.33181800  0.59676020  0.39999880  1
  O  O2537  1  0.33181800  0.59676020  0.59999880  1
  O  O2538  1  0.33181800  0.59676020  0.79999880  1
  O  O2539  1  0.33181800  0.59676020  0.99999880  1
  O  O2540  1  0.33181800  0.79676020  0.19999880  1
  O  O2541  1  0.33181800  0.79676020  0.39999880  1
  O  O2542  1  0.33181800  0.79676020  0.59999880  1
  O  O2543  1  0.33181800  0.79676020  0.79999880  1
  O  O2544  1  0.33181800  0.79676020  0.99999880  1
  O  O2545  1  0.33181800  0.99676020  0.19999880  1
  O  O2546  1  0.33181800  0.99676020  0.39999880  1
  O  O2547  1  0.33181800  0.99676020  0.59999880  1
  O  O2548  1  0.33181800  0.99676020  0.79999880  1
  O  O2549  1  0.33181800  0.99676020  0.99999880  1
  O  O2550  1  0.53181800  0.19676020  0.19999880  1
  O  O2551  1  0.53181800  0.19676020  0.39999880  1
  O  O2552  1  0.53181800  0.19676020  0.59999880  1
  O  O2553  1  0.53181800  0.19676020  0.79999880  1
  O  O2554  1  0.53181800  0.19676020  0.99999880  1
  O  O2555  1  0.53181800  0.39676020  0.19999880  1
  O  O2556  1  0.53181800  0.39676020  0.39999880  1
  O  O2557  1  0.53181800  0.39676020  0.59999880  1
  O  O2558  1  0.53181800  0.39676020  0.79999880  1
  O  O2559  1  0.53181800  0.39676020  0.99999880  1
  O  O2560  1  0.53181800  0.59676020  0.19999880  1
  O  O2561  1  0.53181800  0.59676020  0.39999880  1
  O  O2562  1  0.53181800  0.59676020  0.59999880  1
  O  O2563  1  0.53181800  0.59676020  0.79999880  1
  O  O2564  1  0.53181800  0.59676020  0.99999880  1
  O  O2565  1  0.53181800  0.79676020  0.19999880  1
  O  O2566  1  0.53181800  0.79676020  0.39999880  1
  O  O2567  1  0.53181800  0.79676020  0.59999880  1
  O  O2568  1  0.53181800  0.79676020  0.79999880  1
  O  O2569  1  0.53181800  0.79676020  0.99999880  1
  O  O2570  1  0.53181800  0.99676020  0.19999880  1
  O  O2571  1  0.53181800  0.99676020  0.39999880  1
  O  O2572  1  0.53181800  0.99676020  0.59999880  1
  O  O2573  1  0.53181800  0.99676020  0.79999880  1
  O  O2574  1  0.53181800  0.99676020  0.99999880  1
  O  O2575  1  0.73181800  0.19676020  0.19999880  1
  O  O2576  1  0.73181800  0.19676020  0.39999880  1
  O  O2577  1  0.73181800  0.19676020  0.59999880  1
  O  O2578  1  0.73181800  0.19676020  0.79999880  1
  O  O2579  1  0.73181800  0.19676020  0.99999880  1
  O  O2580  1  0.73181800  0.39676020  0.19999880  1
  O  O2581  1  0.73181800  0.39676020  0.39999880  1
  O  O2582  1  0.73181800  0.39676020  0.59999880  1
  O  O2583  1  0.73181800  0.39676020  0.79999880  1
  O  O2584  1  0.73181800  0.39676020  0.99999880  1
  O  O2585  1  0.73181800  0.59676020  0.19999880  1
  O  O2586  1  0.73181800  0.59676020  0.39999880  1
  O  O2587  1  0.73181800  0.59676020  0.59999880  1
  O  O2588  1  0.73181800  0.59676020  0.79999880  1
  O  O2589  1  0.73181800  0.59676020  0.99999880  1
  O  O2590  1  0.73181800  0.79676020  0.19999880  1
  O  O2591  1  0.73181800  0.79676020  0.39999880  1
  O  O2592  1  0.73181800  0.79676020  0.59999880  1
  O  O2593  1  0.73181800  0.79676020  0.79999880  1
  O  O2594  1  0.73181800  0.79676020  0.99999880  1
  O  O2595  1  0.73181800  0.99676020  0.19999880  1
  O  O2596  1  0.73181800  0.99676020  0.39999880  1
  O  O2597  1  0.73181800  0.99676020  0.59999880  1
  O  O2598  1  0.73181800  0.99676020  0.79999880  1
  O  O2599  1  0.73181800  0.99676020  0.99999880  1
  O  O2600  1  0.93181800  0.19676020  0.19999880  1
  O  O2601  1  0.93181800  0.19676020  0.39999880  1
  O  O2602  1  0.93181800  0.19676020  0.59999880  1
  O  O2603  1  0.93181800  0.19676020  0.79999880  1
  O  O2604  1  0.93181800  0.19676020  0.99999880  1
  O  O2605  1  0.93181800  0.39676020  0.19999880  1
  O  O2606  1  0.93181800  0.39676020  0.39999880  1
  O  O2607  1  0.93181800  0.39676020  0.59999880  1
  O  O2608  1  0.93181800  0.39676020  0.79999880  1
  O  O2609  1  0.93181800  0.39676020  0.99999880  1
  O  O2610  1  0.93181800  0.59676020  0.19999880  1
  O  O2611  1  0.93181800  0.59676020  0.39999880  1
  O  O2612  1  0.93181800  0.59676020  0.59999880  1
  O  O2613  1  0.93181800  0.59676020  0.79999880  1
  O  O2614  1  0.93181800  0.59676020  0.99999880  1
  O  O2615  1  0.93181800  0.79676020  0.19999880  1
  O  O2616  1  0.93181800  0.79676020  0.39999880  1
  O  O2617  1  0.93181800  0.79676020  0.59999880  1
  O  O2618  1  0.93181800  0.79676020  0.79999880  1
  O  O2619  1  0.93181800  0.79676020  0.99999880  1
  O  O2620  1  0.93181800  0.99676020  0.19999880  1
  O  O2621  1  0.93181800  0.99676020  0.39999880  1
  O  O2622  1  0.93181800  0.99676020  0.59999880  1
  O  O2623  1  0.93181800  0.99676020  0.79999880  1
  O  O2624  1  0.93181800  0.99676020  0.99999880  1
  O  O2625  1  0.03181720  0.09675860  0.00000120  1
  O  O2626  1  0.03181720  0.09675860  0.20000120  1
  O  O2627  1  0.03181720  0.09675860  0.40000120  1
  O  O2628  1  0.03181720  0.09675860  0.60000120  1
  O  O2629  1  0.03181720  0.09675860  0.80000120  1
  O  O2630  1  0.03181720  0.29675860  0.00000120  1
  O  O2631  1  0.03181720  0.29675860  0.20000120  1
  O  O2632  1  0.03181720  0.29675860  0.40000120  1
  O  O2633  1  0.03181720  0.29675860  0.60000120  1
  O  O2634  1  0.03181720  0.29675860  0.80000120  1
  O  O2635  1  0.03181720  0.49675860  0.00000120  1
  O  O2636  1  0.03181720  0.49675860  0.20000120  1
  O  O2637  1  0.03181720  0.49675860  0.40000120  1
  O  O2638  1  0.03181720  0.49675860  0.60000120  1
  O  O2639  1  0.03181720  0.49675860  0.80000120  1
  O  O2640  1  0.03181720  0.69675860  0.00000120  1
  O  O2641  1  0.03181720  0.69675860  0.20000120  1
  O  O2642  1  0.03181720  0.69675860  0.40000120  1
  O  O2643  1  0.03181720  0.69675860  0.60000120  1
  O  O2644  1  0.03181720  0.69675860  0.80000120  1
  O  O2645  1  0.03181720  0.89675860  0.00000120  1
  O  O2646  1  0.03181720  0.89675860  0.20000120  1
  O  O2647  1  0.03181720  0.89675860  0.40000120  1
  O  O2648  1  0.03181720  0.89675860  0.60000120  1
  O  O2649  1  0.03181720  0.89675860  0.80000120  1
  O  O2650  1  0.23181720  0.09675860  0.00000120  1
  O  O2651  1  0.23181720  0.09675860  0.20000120  1
  O  O2652  1  0.23181720  0.09675860  0.40000120  1
  O  O2653  1  0.23181720  0.09675860  0.60000120  1
  O  O2654  1  0.23181720  0.09675860  0.80000120  1
  O  O2655  1  0.23181720  0.29675860  0.00000120  1
  O  O2656  1  0.23181720  0.29675860  0.20000120  1
  O  O2657  1  0.23181720  0.29675860  0.40000120  1
  O  O2658  1  0.23181720  0.29675860  0.60000120  1
  O  O2659  1  0.23181720  0.29675860  0.80000120  1
  O  O2660  1  0.23181720  0.49675860  0.00000120  1
  O  O2661  1  0.23181720  0.49675860  0.20000120  1
  O  O2662  1  0.23181720  0.49675860  0.40000120  1
  O  O2663  1  0.23181720  0.49675860  0.60000120  1
  O  O2664  1  0.23181720  0.49675860  0.80000120  1
  O  O2665  1  0.23181720  0.69675860  0.00000120  1
  O  O2666  1  0.23181720  0.69675860  0.20000120  1
  O  O2667  1  0.23181720  0.69675860  0.40000120  1
  O  O2668  1  0.23181720  0.69675860  0.60000120  1
  O  O2669  1  0.23181720  0.69675860  0.80000120  1
  O  O2670  1  0.23181720  0.89675860  0.00000120  1
  O  O2671  1  0.23181720  0.89675860  0.20000120  1
  O  O2672  1  0.23181720  0.89675860  0.40000120  1
  O  O2673  1  0.23181720  0.89675860  0.60000120  1
  O  O2674  1  0.23181720  0.89675860  0.80000120  1
  O  O2675  1  0.43181720  0.09675860  0.00000120  1
  O  O2676  1  0.43181720  0.09675860  0.20000120  1
  O  O2677  1  0.43181720  0.09675860  0.40000120  1
  O  O2678  1  0.43181720  0.09675860  0.60000120  1
  O  O2679  1  0.43181720  0.09675860  0.80000120  1
  O  O2680  1  0.43181720  0.29675860  0.00000120  1
  O  O2681  1  0.43181720  0.29675860  0.20000120  1
  O  O2682  1  0.43181720  0.29675860  0.40000120  1
  O  O2683  1  0.43181720  0.29675860  0.60000120  1
  O  O2684  1  0.43181720  0.29675860  0.80000120  1
  O  O2685  1  0.43181720  0.49675860  0.00000120  1
  O  O2686  1  0.43181720  0.49675860  0.20000120  1
  O  O2687  1  0.43181720  0.49675860  0.40000120  1
  O  O2688  1  0.43181720  0.49675860  0.60000120  1
  O  O2689  1  0.43181720  0.49675860  0.80000120  1
  O  O2690  1  0.43181720  0.69675860  0.00000120  1
  O  O2691  1  0.43181720  0.69675860  0.20000120  1
  O  O2692  1  0.43181720  0.69675860  0.40000120  1
  O  O2693  1  0.43181720  0.69675860  0.60000120  1
  O  O2694  1  0.43181720  0.69675860  0.80000120  1
  O  O2695  1  0.43181720  0.89675860  0.00000120  1
  O  O2696  1  0.43181720  0.89675860  0.20000120  1
  O  O2697  1  0.43181720  0.89675860  0.40000120  1
  O  O2698  1  0.43181720  0.89675860  0.60000120  1
  O  O2699  1  0.43181720  0.89675860  0.80000120  1
  O  O2700  1  0.63181720  0.09675860  0.00000120  1
  O  O2701  1  0.63181720  0.09675860  0.20000120  1
  O  O2702  1  0.63181720  0.09675860  0.40000120  1
  O  O2703  1  0.63181720  0.09675860  0.60000120  1
  O  O2704  1  0.63181720  0.09675860  0.80000120  1
  O  O2705  1  0.63181720  0.29675860  0.00000120  1
  O  O2706  1  0.63181720  0.29675860  0.20000120  1
  O  O2707  1  0.63181720  0.29675860  0.40000120  1
  O  O2708  1  0.63181720  0.29675860  0.60000120  1
  O  O2709  1  0.63181720  0.29675860  0.80000120  1
  O  O2710  1  0.63181720  0.49675860  0.00000120  1
  O  O2711  1  0.63181720  0.49675860  0.20000120  1
  O  O2712  1  0.63181720  0.49675860  0.40000120  1
  O  O2713  1  0.63181720  0.49675860  0.60000120  1
  O  O2714  1  0.63181720  0.49675860  0.80000120  1
  O  O2715  1  0.63181720  0.69675860  0.00000120  1
  O  O2716  1  0.63181720  0.69675860  0.20000120  1
  O  O2717  1  0.63181720  0.69675860  0.40000120  1
  O  O2718  1  0.63181720  0.69675860  0.60000120  1
  O  O2719  1  0.63181720  0.69675860  0.80000120  1
  O  O2720  1  0.63181720  0.89675860  0.00000120  1
  O  O2721  1  0.63181720  0.89675860  0.20000120  1
  O  O2722  1  0.63181720  0.89675860  0.40000120  1
  O  O2723  1  0.63181720  0.89675860  0.60000120  1
  O  O2724  1  0.63181720  0.89675860  0.80000120  1
  O  O2725  1  0.83181720  0.09675860  0.00000120  1
  O  O2726  1  0.83181720  0.09675860  0.20000120  1
  O  O2727  1  0.83181720  0.09675860  0.40000120  1
  O  O2728  1  0.83181720  0.09675860  0.60000120  1
  O  O2729  1  0.83181720  0.09675860  0.80000120  1
  O  O2730  1  0.83181720  0.29675860  0.00000120  1
  O  O2731  1  0.83181720  0.29675860  0.20000120  1
  O  O2732  1  0.83181720  0.29675860  0.40000120  1
  O  O2733  1  0.83181720  0.29675860  0.60000120  1
  O  O2734  1  0.83181720  0.29675860  0.80000120  1
  O  O2735  1  0.83181720  0.49675860  0.00000120  1
  O  O2736  1  0.83181720  0.49675860  0.20000120  1
  O  O2737  1  0.83181720  0.49675860  0.40000120  1
  O  O2738  1  0.83181720  0.49675860  0.60000120  1
  O  O2739  1  0.83181720  0.49675860  0.80000120  1
  O  O2740  1  0.83181720  0.69675860  0.00000120  1
  O  O2741  1  0.83181720  0.69675860  0.20000120  1
  O  O2742  1  0.83181720  0.69675860  0.40000120  1
  O  O2743  1  0.83181720  0.69675860  0.60000120  1
  O  O2744  1  0.83181720  0.69675860  0.80000120  1
  O  O2745  1  0.83181720  0.89675860  0.00000120  1
  O  O2746  1  0.83181720  0.89675860  0.20000120  1
  O  O2747  1  0.83181720  0.89675860  0.40000120  1
  O  O2748  1  0.83181720  0.89675860  0.60000120  1
  O  O2749  1  0.83181720  0.89675860  0.80000120  1
  O  O2750  1  0.19675820  0.13181620  0.10000240  1
  O  O2751  1  0.19675820  0.13181620  0.30000240  1
  O  O2752  1  0.19675820  0.13181620  0.50000240  1
  O  O2753  1  0.19675820  0.13181620  0.70000240  1
  O  O2754  1  0.19675820  0.13181620  0.90000240  1
  O  O2755  1  0.19675820  0.33181620  0.10000240  1
  O  O2756  1  0.19675820  0.33181620  0.30000240  1
  O  O2757  1  0.19675820  0.33181620  0.50000240  1
  O  O2758  1  0.19675820  0.33181620  0.70000240  1
  O  O2759  1  0.19675820  0.33181620  0.90000240  1
  O  O2760  1  0.19675820  0.53181620  0.10000240  1
  O  O2761  1  0.19675820  0.53181620  0.30000240  1
  O  O2762  1  0.19675820  0.53181620  0.50000240  1
  O  O2763  1  0.19675820  0.53181620  0.70000240  1
  O  O2764  1  0.19675820  0.53181620  0.90000240  1
  O  O2765  1  0.19675820  0.73181620  0.10000240  1
  O  O2766  1  0.19675820  0.73181620  0.30000240  1
  O  O2767  1  0.19675820  0.73181620  0.50000240  1
  O  O2768  1  0.19675820  0.73181620  0.70000240  1
  O  O2769  1  0.19675820  0.73181620  0.90000240  1
  O  O2770  1  0.19675820  0.93181620  0.10000240  1
  O  O2771  1  0.19675820  0.93181620  0.30000240  1
  O  O2772  1  0.19675820  0.93181620  0.50000240  1
  O  O2773  1  0.19675820  0.93181620  0.70000240  1
  O  O2774  1  0.19675820  0.93181620  0.90000240  1
  O  O2775  1  0.39675820  0.13181620  0.10000240  1
  O  O2776  1  0.39675820  0.13181620  0.30000240  1
  O  O2777  1  0.39675820  0.13181620  0.50000240  1
  O  O2778  1  0.39675820  0.13181620  0.70000240  1
  O  O2779  1  0.39675820  0.13181620  0.90000240  1
  O  O2780  1  0.39675820  0.33181620  0.10000240  1
  O  O2781  1  0.39675820  0.33181620  0.30000240  1
  O  O2782  1  0.39675820  0.33181620  0.50000240  1
  O  O2783  1  0.39675820  0.33181620  0.70000240  1
  O  O2784  1  0.39675820  0.33181620  0.90000240  1
  O  O2785  1  0.39675820  0.53181620  0.10000240  1
  O  O2786  1  0.39675820  0.53181620  0.30000240  1
  O  O2787  1  0.39675820  0.53181620  0.50000240  1
  O  O2788  1  0.39675820  0.53181620  0.70000240  1
  O  O2789  1  0.39675820  0.53181620  0.90000240  1
  O  O2790  1  0.39675820  0.73181620  0.10000240  1
  O  O2791  1  0.39675820  0.73181620  0.30000240  1
  O  O2792  1  0.39675820  0.73181620  0.50000240  1
  O  O2793  1  0.39675820  0.73181620  0.70000240  1
  O  O2794  1  0.39675820  0.73181620  0.90000240  1
  O  O2795  1  0.39675820  0.93181620  0.10000240  1
  O  O2796  1  0.39675820  0.93181620  0.30000240  1
  O  O2797  1  0.39675820  0.93181620  0.50000240  1
  O  O2798  1  0.39675820  0.93181620  0.70000240  1
  O  O2799  1  0.39675820  0.93181620  0.90000240  1
  O  O2800  1  0.59675820  0.13181620  0.10000240  1
  O  O2801  1  0.59675820  0.13181620  0.30000240  1
  O  O2802  1  0.59675820  0.13181620  0.50000240  1
  O  O2803  1  0.59675820  0.13181620  0.70000240  1
  O  O2804  1  0.59675820  0.13181620  0.90000240  1
  O  O2805  1  0.59675820  0.33181620  0.10000240  1
  O  O2806  1  0.59675820  0.33181620  0.30000240  1
  O  O2807  1  0.59675820  0.33181620  0.50000240  1
  O  O2808  1  0.59675820  0.33181620  0.70000240  1
  O  O2809  1  0.59675820  0.33181620  0.90000240  1
  O  O2810  1  0.59675820  0.53181620  0.10000240  1
  O  O2811  1  0.59675820  0.53181620  0.30000240  1
  O  O2812  1  0.59675820  0.53181620  0.50000240  1
  O  O2813  1  0.59675820  0.53181620  0.70000240  1
  O  O2814  1  0.59675820  0.53181620  0.90000240  1
  O  O2815  1  0.59675820  0.73181620  0.10000240  1
  O  O2816  1  0.59675820  0.73181620  0.30000240  1
  O  O2817  1  0.59675820  0.73181620  0.50000240  1
  O  O2818  1  0.59675820  0.73181620  0.70000240  1
  O  O2819  1  0.59675820  0.73181620  0.90000240  1
  O  O2820  1  0.59675820  0.93181620  0.10000240  1
  O  O2821  1  0.59675820  0.93181620  0.30000240  1
  O  O2822  1  0.59675820  0.93181620  0.50000240  1
  O  O2823  1  0.59675820  0.93181620  0.70000240  1
  O  O2824  1  0.59675820  0.93181620  0.90000240  1
  O  O2825  1  0.79675820  0.13181620  0.10000240  1
  O  O2826  1  0.79675820  0.13181620  0.30000240  1
  O  O2827  1  0.79675820  0.13181620  0.50000240  1
  O  O2828  1  0.79675820  0.13181620  0.70000240  1
  O  O2829  1  0.79675820  0.13181620  0.90000240  1
  O  O2830  1  0.79675820  0.33181620  0.10000240  1
  O  O2831  1  0.79675820  0.33181620  0.30000240  1
  O  O2832  1  0.79675820  0.33181620  0.50000240  1
  O  O2833  1  0.79675820  0.33181620  0.70000240  1
  O  O2834  1  0.79675820  0.33181620  0.90000240  1
  O  O2835  1  0.79675820  0.53181620  0.10000240  1
  O  O2836  1  0.79675820  0.53181620  0.30000240  1
  O  O2837  1  0.79675820  0.53181620  0.50000240  1
  O  O2838  1  0.79675820  0.53181620  0.70000240  1
  O  O2839  1  0.79675820  0.53181620  0.90000240  1
  O  O2840  1  0.79675820  0.73181620  0.10000240  1
  O  O2841  1  0.79675820  0.73181620  0.30000240  1
  O  O2842  1  0.79675820  0.73181620  0.50000240  1
  O  O2843  1  0.79675820  0.73181620  0.70000240  1
  O  O2844  1  0.79675820  0.73181620  0.90000240  1
  O  O2845  1  0.79675820  0.93181620  0.10000240  1
  O  O2846  1  0.79675820  0.93181620  0.30000240  1
  O  O2847  1  0.79675820  0.93181620  0.50000240  1
  O  O2848  1  0.79675820  0.93181620  0.70000240  1
  O  O2849  1  0.79675820  0.93181620  0.90000240  1
  O  O2850  1  0.99675820  0.13181620  0.10000240  1
  O  O2851  1  0.99675820  0.13181620  0.30000240  1
  O  O2852  1  0.99675820  0.13181620  0.50000240  1
  O  O2853  1  0.99675820  0.13181620  0.70000240  1
  O  O2854  1  0.99675820  0.13181620  0.90000240  1
  O  O2855  1  0.99675820  0.33181620  0.10000240  1
  O  O2856  1  0.99675820  0.33181620  0.30000240  1
  O  O2857  1  0.99675820  0.33181620  0.50000240  1
  O  O2858  1  0.99675820  0.33181620  0.70000240  1
  O  O2859  1  0.99675820  0.33181620  0.90000240  1
  O  O2860  1  0.99675820  0.53181620  0.10000240  1
  O  O2861  1  0.99675820  0.53181620  0.30000240  1
  O  O2862  1  0.99675820  0.53181620  0.50000240  1
  O  O2863  1  0.99675820  0.53181620  0.70000240  1
  O  O2864  1  0.99675820  0.53181620  0.90000240  1
  O  O2865  1  0.99675820  0.73181620  0.10000240  1
  O  O2866  1  0.99675820  0.73181620  0.30000240  1
  O  O2867  1  0.99675820  0.73181620  0.50000240  1
  O  O2868  1  0.99675820  0.73181620  0.70000240  1
  O  O2869  1  0.99675820  0.73181620  0.90000240  1
  O  O2870  1  0.99675820  0.93181620  0.10000240  1
  O  O2871  1  0.99675820  0.93181620  0.30000240  1
  O  O2872  1  0.99675820  0.93181620  0.50000240  1
  O  O2873  1  0.99675820  0.93181620  0.70000240  1
  O  O2874  1  0.99675820  0.93181620  0.90000240  1
  O  O2875  1  0.09675620  0.03181440  0.10000620  1
  O  O2876  1  0.09675620  0.03181440  0.30000620  1
  O  O2877  1  0.09675620  0.03181440  0.50000620  1
  O  O2878  1  0.09675620  0.03181440  0.70000620  1
  O  O2879  1  0.09675620  0.03181440  0.90000620  1
  O  O2880  1  0.09675620  0.23181440  0.10000620  1
  O  O2881  1  0.09675620  0.23181440  0.30000620  1
  O  O2882  1  0.09675620  0.23181440  0.50000620  1
  O  O2883  1  0.09675620  0.23181440  0.70000620  1
  O  O2884  1  0.09675620  0.23181440  0.90000620  1
  O  O2885  1  0.09675620  0.43181440  0.10000620  1
  O  O2886  1  0.09675620  0.43181440  0.30000620  1
  O  O2887  1  0.09675620  0.43181440  0.50000620  1
  O  O2888  1  0.09675620  0.43181440  0.70000620  1
  O  O2889  1  0.09675620  0.43181440  0.90000620  1
  O  O2890  1  0.09675620  0.63181440  0.10000620  1
  O  O2891  1  0.09675620  0.63181440  0.30000620  1
  O  O2892  1  0.09675620  0.63181440  0.50000620  1
  O  O2893  1  0.09675620  0.63181440  0.70000620  1
  O  O2894  1  0.09675620  0.63181440  0.90000620  1
  O  O2895  1  0.09675620  0.83181440  0.10000620  1
  O  O2896  1  0.09675620  0.83181440  0.30000620  1
  O  O2897  1  0.09675620  0.83181440  0.50000620  1
  O  O2898  1  0.09675620  0.83181440  0.70000620  1
  O  O2899  1  0.09675620  0.83181440  0.90000620  1
  O  O2900  1  0.29675620  0.03181440  0.10000620  1
  O  O2901  1  0.29675620  0.03181440  0.30000620  1
  O  O2902  1  0.29675620  0.03181440  0.50000620  1
  O  O2903  1  0.29675620  0.03181440  0.70000620  1
  O  O2904  1  0.29675620  0.03181440  0.90000620  1
  O  O2905  1  0.29675620  0.23181440  0.10000620  1
  O  O2906  1  0.29675620  0.23181440  0.30000620  1
  O  O2907  1  0.29675620  0.23181440  0.50000620  1
  O  O2908  1  0.29675620  0.23181440  0.70000620  1
  O  O2909  1  0.29675620  0.23181440  0.90000620  1
  O  O2910  1  0.29675620  0.43181440  0.10000620  1
  O  O2911  1  0.29675620  0.43181440  0.30000620  1
  O  O2912  1  0.29675620  0.43181440  0.50000620  1
  O  O2913  1  0.29675620  0.43181440  0.70000620  1
  O  O2914  1  0.29675620  0.43181440  0.90000620  1
  O  O2915  1  0.29675620  0.63181440  0.10000620  1
  O  O2916  1  0.29675620  0.63181440  0.30000620  1
  O  O2917  1  0.29675620  0.63181440  0.50000620  1
  O  O2918  1  0.29675620  0.63181440  0.70000620  1
  O  O2919  1  0.29675620  0.63181440  0.90000620  1
  O  O2920  1  0.29675620  0.83181440  0.10000620  1
  O  O2921  1  0.29675620  0.83181440  0.30000620  1
  O  O2922  1  0.29675620  0.83181440  0.50000620  1
  O  O2923  1  0.29675620  0.83181440  0.70000620  1
  O  O2924  1  0.29675620  0.83181440  0.90000620  1
  O  O2925  1  0.49675620  0.03181440  0.10000620  1
  O  O2926  1  0.49675620  0.03181440  0.30000620  1
  O  O2927  1  0.49675620  0.03181440  0.50000620  1
  O  O2928  1  0.49675620  0.03181440  0.70000620  1
  O  O2929  1  0.49675620  0.03181440  0.90000620  1
  O  O2930  1  0.49675620  0.23181440  0.10000620  1
  O  O2931  1  0.49675620  0.23181440  0.30000620  1
  O  O2932  1  0.49675620  0.23181440  0.50000620  1
  O  O2933  1  0.49675620  0.23181440  0.70000620  1
  O  O2934  1  0.49675620  0.23181440  0.90000620  1
  O  O2935  1  0.49675620  0.43181440  0.10000620  1
  O  O2936  1  0.49675620  0.43181440  0.30000620  1
  O  O2937  1  0.49675620  0.43181440  0.50000620  1
  O  O2938  1  0.49675620  0.43181440  0.70000620  1
  O  O2939  1  0.49675620  0.43181440  0.90000620  1
  O  O2940  1  0.49675620  0.63181440  0.10000620  1
  O  O2941  1  0.49675620  0.63181440  0.30000620  1
  O  O2942  1  0.49675620  0.63181440  0.50000620  1
  O  O2943  1  0.49675620  0.63181440  0.70000620  1
  O  O2944  1  0.49675620  0.63181440  0.90000620  1
  O  O2945  1  0.49675620  0.83181440  0.10000620  1
  O  O2946  1  0.49675620  0.83181440  0.30000620  1
  O  O2947  1  0.49675620  0.83181440  0.50000620  1
  O  O2948  1  0.49675620  0.83181440  0.70000620  1
  O  O2949  1  0.49675620  0.83181440  0.90000620  1
  O  O2950  1  0.69675620  0.03181440  0.10000620  1
  O  O2951  1  0.69675620  0.03181440  0.30000620  1
  O  O2952  1  0.69675620  0.03181440  0.50000620  1
  O  O2953  1  0.69675620  0.03181440  0.70000620  1
  O  O2954  1  0.69675620  0.03181440  0.90000620  1
  O  O2955  1  0.69675620  0.23181440  0.10000620  1
  O  O2956  1  0.69675620  0.23181440  0.30000620  1
  O  O2957  1  0.69675620  0.23181440  0.50000620  1
  O  O2958  1  0.69675620  0.23181440  0.70000620  1
  O  O2959  1  0.69675620  0.23181440  0.90000620  1
  O  O2960  1  0.69675620  0.43181440  0.10000620  1
  O  O2961  1  0.69675620  0.43181440  0.30000620  1
  O  O2962  1  0.69675620  0.43181440  0.50000620  1
  O  O2963  1  0.69675620  0.43181440  0.70000620  1
  O  O2964  1  0.69675620  0.43181440  0.90000620  1
  O  O2965  1  0.69675620  0.63181440  0.10000620  1
  O  O2966  1  0.69675620  0.63181440  0.30000620  1
  O  O2967  1  0.69675620  0.63181440  0.50000620  1
  O  O2968  1  0.69675620  0.63181440  0.70000620  1
  O  O2969  1  0.69675620  0.63181440  0.90000620  1
  O  O2970  1  0.69675620  0.83181440  0.10000620  1
  O  O2971  1  0.69675620  0.83181440  0.30000620  1
  O  O2972  1  0.69675620  0.83181440  0.50000620  1
  O  O2973  1  0.69675620  0.83181440  0.70000620  1
  O  O2974  1  0.69675620  0.83181440  0.90000620  1
  O  O2975  1  0.89675620  0.03181440  0.10000620  1
  O  O2976  1  0.89675620  0.03181440  0.30000620  1
  O  O2977  1  0.89675620  0.03181440  0.50000620  1
  O  O2978  1  0.89675620  0.03181440  0.70000620  1
  O  O2979  1  0.89675620  0.03181440  0.90000620  1
  O  O2980  1  0.89675620  0.23181440  0.10000620  1
  O  O2981  1  0.89675620  0.23181440  0.30000620  1
  O  O2982  1  0.89675620  0.23181440  0.50000620  1
  O  O2983  1  0.89675620  0.23181440  0.70000620  1
  O  O2984  1  0.89675620  0.23181440  0.90000620  1
  O  O2985  1  0.89675620  0.43181440  0.10000620  1
  O  O2986  1  0.89675620  0.43181440  0.30000620  1
  O  O2987  1  0.89675620  0.43181440  0.50000620  1
  O  O2988  1  0.89675620  0.43181440  0.70000620  1
  O  O2989  1  0.89675620  0.43181440  0.90000620  1
  O  O2990  1  0.89675620  0.63181440  0.10000620  1
  O  O2991  1  0.89675620  0.63181440  0.30000620  1
  O  O2992  1  0.89675620  0.63181440  0.50000620  1
  O  O2993  1  0.89675620  0.63181440  0.70000620  1
  O  O2994  1  0.89675620  0.63181440  0.90000620  1
  O  O2995  1  0.89675620  0.83181440  0.10000620  1
  O  O2996  1  0.89675620  0.83181440  0.30000620  1
  O  O2997  1  0.89675620  0.83181440  0.50000620  1
  O  O2998  1  0.89675620  0.83181440  0.70000620  1
  O  O2999  1  0.89675620  0.83181440  0.90000620  1
  O  O3000  1  0.01519240  0.05109380  0.15493640  1
  O  O3001  1  0.01519240  0.05109380  0.35493640  1
  O  O3002  1  0.01519240  0.05109380  0.55493640  1
  O  O3003  1  0.01519240  0.05109380  0.75493640  1
  O  O3004  1  0.01519240  0.05109380  0.95493640  1
  O  O3005  1  0.01519240  0.25109380  0.15493640  1
  O  O3006  1  0.01519240  0.25109380  0.35493640  1
  O  O3007  1  0.01519240  0.25109380  0.55493640  1
  O  O3008  1  0.01519240  0.25109380  0.75493640  1
  O  O3009  1  0.01519240  0.25109380  0.95493640  1
  O  O3010  1  0.01519240  0.45109380  0.15493640  1
  O  O3011  1  0.01519240  0.45109380  0.35493640  1
  O  O3012  1  0.01519240  0.45109380  0.55493640  1
  O  O3013  1  0.01519240  0.45109380  0.75493640  1
  O  O3014  1  0.01519240  0.45109380  0.95493640  1
  O  O3015  1  0.01519240  0.65109380  0.15493640  1
  O  O3016  1  0.01519240  0.65109380  0.35493640  1
  O  O3017  1  0.01519240  0.65109380  0.55493640  1
  O  O3018  1  0.01519240  0.65109380  0.75493640  1
  O  O3019  1  0.01519240  0.65109380  0.95493640  1
  O  O3020  1  0.01519240  0.85109380  0.15493640  1
  O  O3021  1  0.01519240  0.85109380  0.35493640  1
  O  O3022  1  0.01519240  0.85109380  0.55493640  1
  O  O3023  1  0.01519240  0.85109380  0.75493640  1
  O  O3024  1  0.01519240  0.85109380  0.95493640  1
  O  O3025  1  0.21519240  0.05109380  0.15493640  1
  O  O3026  1  0.21519240  0.05109380  0.35493640  1
  O  O3027  1  0.21519240  0.05109380  0.55493640  1
  O  O3028  1  0.21519240  0.05109380  0.75493640  1
  O  O3029  1  0.21519240  0.05109380  0.95493640  1
  O  O3030  1  0.21519240  0.25109380  0.15493640  1
  O  O3031  1  0.21519240  0.25109380  0.35493640  1
  O  O3032  1  0.21519240  0.25109380  0.55493640  1
  O  O3033  1  0.21519240  0.25109380  0.75493640  1
  O  O3034  1  0.21519240  0.25109380  0.95493640  1
  O  O3035  1  0.21519240  0.45109380  0.15493640  1
  O  O3036  1  0.21519240  0.45109380  0.35493640  1
  O  O3037  1  0.21519240  0.45109380  0.55493640  1
  O  O3038  1  0.21519240  0.45109380  0.75493640  1
  O  O3039  1  0.21519240  0.45109380  0.95493640  1
  O  O3040  1  0.21519240  0.65109380  0.15493640  1
  O  O3041  1  0.21519240  0.65109380  0.35493640  1
  O  O3042  1  0.21519240  0.65109380  0.55493640  1
  O  O3043  1  0.21519240  0.65109380  0.75493640  1
  O  O3044  1  0.21519240  0.65109380  0.95493640  1
  O  O3045  1  0.21519240  0.85109380  0.15493640  1
  O  O3046  1  0.21519240  0.85109380  0.35493640  1
  O  O3047  1  0.21519240  0.85109380  0.55493640  1
  O  O3048  1  0.21519240  0.85109380  0.75493640  1
  O  O3049  1  0.21519240  0.85109380  0.95493640  1
  O  O3050  1  0.41519240  0.05109380  0.15493640  1
  O  O3051  1  0.41519240  0.05109380  0.35493640  1
  O  O3052  1  0.41519240  0.05109380  0.55493640  1
  O  O3053  1  0.41519240  0.05109380  0.75493640  1
  O  O3054  1  0.41519240  0.05109380  0.95493640  1
  O  O3055  1  0.41519240  0.25109380  0.15493640  1
  O  O3056  1  0.41519240  0.25109380  0.35493640  1
  O  O3057  1  0.41519240  0.25109380  0.55493640  1
  O  O3058  1  0.41519240  0.25109380  0.75493640  1
  O  O3059  1  0.41519240  0.25109380  0.95493640  1
  O  O3060  1  0.41519240  0.45109380  0.15493640  1
  O  O3061  1  0.41519240  0.45109380  0.35493640  1
  O  O3062  1  0.41519240  0.45109380  0.55493640  1
  O  O3063  1  0.41519240  0.45109380  0.75493640  1
  O  O3064  1  0.41519240  0.45109380  0.95493640  1
  O  O3065  1  0.41519240  0.65109380  0.15493640  1
  O  O3066  1  0.41519240  0.65109380  0.35493640  1
  O  O3067  1  0.41519240  0.65109380  0.55493640  1
  O  O3068  1  0.41519240  0.65109380  0.75493640  1
  O  O3069  1  0.41519240  0.65109380  0.95493640  1
  O  O3070  1  0.41519240  0.85109380  0.15493640  1
  O  O3071  1  0.41519240  0.85109380  0.35493640  1
  O  O3072  1  0.41519240  0.85109380  0.55493640  1
  O  O3073  1  0.41519240  0.85109380  0.75493640  1
  O  O3074  1  0.41519240  0.85109380  0.95493640  1
  O  O3075  1  0.61519240  0.05109380  0.15493640  1
  O  O3076  1  0.61519240  0.05109380  0.35493640  1
  O  O3077  1  0.61519240  0.05109380  0.55493640  1
  O  O3078  1  0.61519240  0.05109380  0.75493640  1
  O  O3079  1  0.61519240  0.05109380  0.95493640  1
  O  O3080  1  0.61519240  0.25109380  0.15493640  1
  O  O3081  1  0.61519240  0.25109380  0.35493640  1
  O  O3082  1  0.61519240  0.25109380  0.55493640  1
  O  O3083  1  0.61519240  0.25109380  0.75493640  1
  O  O3084  1  0.61519240  0.25109380  0.95493640  1
  O  O3085  1  0.61519240  0.45109380  0.15493640  1
  O  O3086  1  0.61519240  0.45109380  0.35493640  1
  O  O3087  1  0.61519240  0.45109380  0.55493640  1
  O  O3088  1  0.61519240  0.45109380  0.75493640  1
  O  O3089  1  0.61519240  0.45109380  0.95493640  1
  O  O3090  1  0.61519240  0.65109380  0.15493640  1
  O  O3091  1  0.61519240  0.65109380  0.35493640  1
  O  O3092  1  0.61519240  0.65109380  0.55493640  1
  O  O3093  1  0.61519240  0.65109380  0.75493640  1
  O  O3094  1  0.61519240  0.65109380  0.95493640  1
  O  O3095  1  0.61519240  0.85109380  0.15493640  1
  O  O3096  1  0.61519240  0.85109380  0.35493640  1
  O  O3097  1  0.61519240  0.85109380  0.55493640  1
  O  O3098  1  0.61519240  0.85109380  0.75493640  1
  O  O3099  1  0.61519240  0.85109380  0.95493640  1
  O  O3100  1  0.81519240  0.05109380  0.15493640  1
  O  O3101  1  0.81519240  0.05109380  0.35493640  1
  O  O3102  1  0.81519240  0.05109380  0.55493640  1
  O  O3103  1  0.81519240  0.05109380  0.75493640  1
  O  O3104  1  0.81519240  0.05109380  0.95493640  1
  O  O3105  1  0.81519240  0.25109380  0.15493640  1
  O  O3106  1  0.81519240  0.25109380  0.35493640  1
  O  O3107  1  0.81519240  0.25109380  0.55493640  1
  O  O3108  1  0.81519240  0.25109380  0.75493640  1
  O  O3109  1  0.81519240  0.25109380  0.95493640  1
  O  O3110  1  0.81519240  0.45109380  0.15493640  1
  O  O3111  1  0.81519240  0.45109380  0.35493640  1
  O  O3112  1  0.81519240  0.45109380  0.55493640  1
  O  O3113  1  0.81519240  0.45109380  0.75493640  1
  O  O3114  1  0.81519240  0.45109380  0.95493640  1
  O  O3115  1  0.81519240  0.65109380  0.15493640  1
  O  O3116  1  0.81519240  0.65109380  0.35493640  1
  O  O3117  1  0.81519240  0.65109380  0.55493640  1
  O  O3118  1  0.81519240  0.65109380  0.75493640  1
  O  O3119  1  0.81519240  0.65109380  0.95493640  1
  O  O3120  1  0.81519240  0.85109380  0.15493640  1
  O  O3121  1  0.81519240  0.85109380  0.35493640  1
  O  O3122  1  0.81519240  0.85109380  0.55493640  1
  O  O3123  1  0.81519240  0.85109380  0.75493640  1
  O  O3124  1  0.81519240  0.85109380  0.95493640  1
  O  O3125  1  0.11519340  0.15109640  0.15493720  1
  O  O3126  1  0.11519340  0.15109640  0.35493720  1
  O  O3127  1  0.11519340  0.15109640  0.55493720  1
  O  O3128  1  0.11519340  0.15109640  0.75493720  1
  O  O3129  1  0.11519340  0.15109640  0.95493720  1
  O  O3130  1  0.11519340  0.35109640  0.15493720  1
  O  O3131  1  0.11519340  0.35109640  0.35493720  1
  O  O3132  1  0.11519340  0.35109640  0.55493720  1
  O  O3133  1  0.11519340  0.35109640  0.75493720  1
  O  O3134  1  0.11519340  0.35109640  0.95493720  1
  O  O3135  1  0.11519340  0.55109640  0.15493720  1
  O  O3136  1  0.11519340  0.55109640  0.35493720  1
  O  O3137  1  0.11519340  0.55109640  0.55493720  1
  O  O3138  1  0.11519340  0.55109640  0.75493720  1
  O  O3139  1  0.11519340  0.55109640  0.95493720  1
  O  O3140  1  0.11519340  0.75109640  0.15493720  1
  O  O3141  1  0.11519340  0.75109640  0.35493720  1
  O  O3142  1  0.11519340  0.75109640  0.55493720  1
  O  O3143  1  0.11519340  0.75109640  0.75493720  1
  O  O3144  1  0.11519340  0.75109640  0.95493720  1
  O  O3145  1  0.11519340  0.95109640  0.15493720  1
  O  O3146  1  0.11519340  0.95109640  0.35493720  1
  O  O3147  1  0.11519340  0.95109640  0.55493720  1
  O  O3148  1  0.11519340  0.95109640  0.75493720  1
  O  O3149  1  0.11519340  0.95109640  0.95493720  1
  O  O3150  1  0.31519340  0.15109640  0.15493720  1
  O  O3151  1  0.31519340  0.15109640  0.35493720  1
  O  O3152  1  0.31519340  0.15109640  0.55493720  1
  O  O3153  1  0.31519340  0.15109640  0.75493720  1
  O  O3154  1  0.31519340  0.15109640  0.95493720  1
  O  O3155  1  0.31519340  0.35109640  0.15493720  1
  O  O3156  1  0.31519340  0.35109640  0.35493720  1
  O  O3157  1  0.31519340  0.35109640  0.55493720  1
  O  O3158  1  0.31519340  0.35109640  0.75493720  1
  O  O3159  1  0.31519340  0.35109640  0.95493720  1
  O  O3160  1  0.31519340  0.55109640  0.15493720  1
  O  O3161  1  0.31519340  0.55109640  0.35493720  1
  O  O3162  1  0.31519340  0.55109640  0.55493720  1
  O  O3163  1  0.31519340  0.55109640  0.75493720  1
  O  O3164  1  0.31519340  0.55109640  0.95493720  1
  O  O3165  1  0.31519340  0.75109640  0.15493720  1
  O  O3166  1  0.31519340  0.75109640  0.35493720  1
  O  O3167  1  0.31519340  0.75109640  0.55493720  1
  O  O3168  1  0.31519340  0.75109640  0.75493720  1
  O  O3169  1  0.31519340  0.75109640  0.95493720  1
  O  O3170  1  0.31519340  0.95109640  0.15493720  1
  O  O3171  1  0.31519340  0.95109640  0.35493720  1
  O  O3172  1  0.31519340  0.95109640  0.55493720  1
  O  O3173  1  0.31519340  0.95109640  0.75493720  1
  O  O3174  1  0.31519340  0.95109640  0.95493720  1
  O  O3175  1  0.51519340  0.15109640  0.15493720  1
  O  O3176  1  0.51519340  0.15109640  0.35493720  1
  O  O3177  1  0.51519340  0.15109640  0.55493720  1
  O  O3178  1  0.51519340  0.15109640  0.75493720  1
  O  O3179  1  0.51519340  0.15109640  0.95493720  1
  O  O3180  1  0.51519340  0.35109640  0.15493720  1
  O  O3181  1  0.51519340  0.35109640  0.35493720  1
  O  O3182  1  0.51519340  0.35109640  0.55493720  1
  O  O3183  1  0.51519340  0.35109640  0.75493720  1
  O  O3184  1  0.51519340  0.35109640  0.95493720  1
  O  O3185  1  0.51519340  0.55109640  0.15493720  1
  O  O3186  1  0.51519340  0.55109640  0.35493720  1
  O  O3187  1  0.51519340  0.55109640  0.55493720  1
  O  O3188  1  0.51519340  0.55109640  0.75493720  1
  O  O3189  1  0.51519340  0.55109640  0.95493720  1
  O  O3190  1  0.51519340  0.75109640  0.15493720  1
  O  O3191  1  0.51519340  0.75109640  0.35493720  1
  O  O3192  1  0.51519340  0.75109640  0.55493720  1
  O  O3193  1  0.51519340  0.75109640  0.75493720  1
  O  O3194  1  0.51519340  0.75109640  0.95493720  1
  O  O3195  1  0.51519340  0.95109640  0.15493720  1
  O  O3196  1  0.51519340  0.95109640  0.35493720  1
  O  O3197  1  0.51519340  0.95109640  0.55493720  1
  O  O3198  1  0.51519340  0.95109640  0.75493720  1
  O  O3199  1  0.51519340  0.95109640  0.95493720  1
  O  O3200  1  0.71519340  0.15109640  0.15493720  1
  O  O3201  1  0.71519340  0.15109640  0.35493720  1
  O  O3202  1  0.71519340  0.15109640  0.55493720  1
  O  O3203  1  0.71519340  0.15109640  0.75493720  1
  O  O3204  1  0.71519340  0.15109640  0.95493720  1
  O  O3205  1  0.71519340  0.35109640  0.15493720  1
  O  O3206  1  0.71519340  0.35109640  0.35493720  1
  O  O3207  1  0.71519340  0.35109640  0.55493720  1
  O  O3208  1  0.71519340  0.35109640  0.75493720  1
  O  O3209  1  0.71519340  0.35109640  0.95493720  1
  O  O3210  1  0.71519340  0.55109640  0.15493720  1
  O  O3211  1  0.71519340  0.55109640  0.35493720  1
  O  O3212  1  0.71519340  0.55109640  0.55493720  1
  O  O3213  1  0.71519340  0.55109640  0.75493720  1
  O  O3214  1  0.71519340  0.55109640  0.95493720  1
  O  O3215  1  0.71519340  0.75109640  0.15493720  1
  O  O3216  1  0.71519340  0.75109640  0.35493720  1
  O  O3217  1  0.71519340  0.75109640  0.55493720  1
  O  O3218  1  0.71519340  0.75109640  0.75493720  1
  O  O3219  1  0.71519340  0.75109640  0.95493720  1
  O  O3220  1  0.71519340  0.95109640  0.15493720  1
  O  O3221  1  0.71519340  0.95109640  0.35493720  1
  O  O3222  1  0.71519340  0.95109640  0.55493720  1
  O  O3223  1  0.71519340  0.95109640  0.75493720  1
  O  O3224  1  0.71519340  0.95109640  0.95493720  1
  O  O3225  1  0.91519340  0.15109640  0.15493720  1
  O  O3226  1  0.91519340  0.15109640  0.35493720  1
  O  O3227  1  0.91519340  0.15109640  0.55493720  1
  O  O3228  1  0.91519340  0.15109640  0.75493720  1
  O  O3229  1  0.91519340  0.15109640  0.95493720  1
  O  O3230  1  0.91519340  0.35109640  0.15493720  1
  O  O3231  1  0.91519340  0.35109640  0.35493720  1
  O  O3232  1  0.91519340  0.35109640  0.55493720  1
  O  O3233  1  0.91519340  0.35109640  0.75493720  1
  O  O3234  1  0.91519340  0.35109640  0.95493720  1
  O  O3235  1  0.91519340  0.55109640  0.15493720  1
  O  O3236  1  0.91519340  0.55109640  0.35493720  1
  O  O3237  1  0.91519340  0.55109640  0.55493720  1
  O  O3238  1  0.91519340  0.55109640  0.75493720  1
  O  O3239  1  0.91519340  0.55109640  0.95493720  1
  O  O3240  1  0.91519340  0.75109640  0.15493720  1
  O  O3241  1  0.91519340  0.75109640  0.35493720  1
  O  O3242  1  0.91519340  0.75109640  0.55493720  1
  O  O3243  1  0.91519340  0.75109640  0.75493720  1
  O  O3244  1  0.91519340  0.75109640  0.95493720  1
  O  O3245  1  0.91519340  0.95109640  0.15493720  1
  O  O3246  1  0.91519340  0.95109640  0.35493720  1
  O  O3247  1  0.91519340  0.95109640  0.55493720  1
  O  O3248  1  0.91519340  0.95109640  0.75493720  1
  O  O3249  1  0.91519340  0.95109640  0.95493720  1
  O  O3250  1  0.00602360  0.17011960  0.14505040  1
  O  O3251  1  0.00602360  0.17011960  0.34505040  1
  O  O3252  1  0.00602360  0.17011960  0.54505040  1
  O  O3253  1  0.00602360  0.17011960  0.74505040  1
  O  O3254  1  0.00602360  0.17011960  0.94505040  1
  O  O3255  1  0.00602360  0.37011960  0.14505040  1
  O  O3256  1  0.00602360  0.37011960  0.34505040  1
  O  O3257  1  0.00602360  0.37011960  0.54505040  1
  O  O3258  1  0.00602360  0.37011960  0.74505040  1
  O  O3259  1  0.00602360  0.37011960  0.94505040  1
  O  O3260  1  0.00602360  0.57011960  0.14505040  1
  O  O3261  1  0.00602360  0.57011960  0.34505040  1
  O  O3262  1  0.00602360  0.57011960  0.54505040  1
  O  O3263  1  0.00602360  0.57011960  0.74505040  1
  O  O3264  1  0.00602360  0.57011960  0.94505040  1
  O  O3265  1  0.00602360  0.77011960  0.14505040  1
  O  O3266  1  0.00602360  0.77011960  0.34505040  1
  O  O3267  1  0.00602360  0.77011960  0.54505040  1
  O  O3268  1  0.00602360  0.77011960  0.74505040  1
  O  O3269  1  0.00602360  0.77011960  0.94505040  1
  O  O3270  1  0.00602360  0.97011960  0.14505040  1
  O  O3271  1  0.00602360  0.97011960  0.34505040  1
  O  O3272  1  0.00602360  0.97011960  0.54505040  1
  O  O3273  1  0.00602360  0.97011960  0.74505040  1
  O  O3274  1  0.00602360  0.97011960  0.94505040  1
  O  O3275  1  0.20602360  0.17011960  0.14505040  1
  O  O3276  1  0.20602360  0.17011960  0.34505040  1
  O  O3277  1  0.20602360  0.17011960  0.54505040  1
  O  O3278  1  0.20602360  0.17011960  0.74505040  1
  O  O3279  1  0.20602360  0.17011960  0.94505040  1
  O  O3280  1  0.20602360  0.37011960  0.14505040  1
  O  O3281  1  0.20602360  0.37011960  0.34505040  1
  O  O3282  1  0.20602360  0.37011960  0.54505040  1
  O  O3283  1  0.20602360  0.37011960  0.74505040  1
  O  O3284  1  0.20602360  0.37011960  0.94505040  1
  O  O3285  1  0.20602360  0.57011960  0.14505040  1
  O  O3286  1  0.20602360  0.57011960  0.34505040  1
  O  O3287  1  0.20602360  0.57011960  0.54505040  1
  O  O3288  1  0.20602360  0.57011960  0.74505040  1
  O  O3289  1  0.20602360  0.57011960  0.94505040  1
  O  O3290  1  0.20602360  0.77011960  0.14505040  1
  O  O3291  1  0.20602360  0.77011960  0.34505040  1
  O  O3292  1  0.20602360  0.77011960  0.54505040  1
  O  O3293  1  0.20602360  0.77011960  0.74505040  1
  O  O3294  1  0.20602360  0.77011960  0.94505040  1
  O  O3295  1  0.20602360  0.97011960  0.14505040  1
  O  O3296  1  0.20602360  0.97011960  0.34505040  1
  O  O3297  1  0.20602360  0.97011960  0.54505040  1
  O  O3298  1  0.20602360  0.97011960  0.74505040  1
  O  O3299  1  0.20602360  0.97011960  0.94505040  1
  O  O3300  1  0.40602360  0.17011960  0.14505040  1
  O  O3301  1  0.40602360  0.17011960  0.34505040  1
  O  O3302  1  0.40602360  0.17011960  0.54505040  1
  O  O3303  1  0.40602360  0.17011960  0.74505040  1
  O  O3304  1  0.40602360  0.17011960  0.94505040  1
  O  O3305  1  0.40602360  0.37011960  0.14505040  1
  O  O3306  1  0.40602360  0.37011960  0.34505040  1
  O  O3307  1  0.40602360  0.37011960  0.54505040  1
  O  O3308  1  0.40602360  0.37011960  0.74505040  1
  O  O3309  1  0.40602360  0.37011960  0.94505040  1
  O  O3310  1  0.40602360  0.57011960  0.14505040  1
  O  O3311  1  0.40602360  0.57011960  0.34505040  1
  O  O3312  1  0.40602360  0.57011960  0.54505040  1
  O  O3313  1  0.40602360  0.57011960  0.74505040  1
  O  O3314  1  0.40602360  0.57011960  0.94505040  1
  O  O3315  1  0.40602360  0.77011960  0.14505040  1
  O  O3316  1  0.40602360  0.77011960  0.34505040  1
  O  O3317  1  0.40602360  0.77011960  0.54505040  1
  O  O3318  1  0.40602360  0.77011960  0.74505040  1
  O  O3319  1  0.40602360  0.77011960  0.94505040  1
  O  O3320  1  0.40602360  0.97011960  0.14505040  1
  O  O3321  1  0.40602360  0.97011960  0.34505040  1
  O  O3322  1  0.40602360  0.97011960  0.54505040  1
  O  O3323  1  0.40602360  0.97011960  0.74505040  1
  O  O3324  1  0.40602360  0.97011960  0.94505040  1
  O  O3325  1  0.60602360  0.17011960  0.14505040  1
  O  O3326  1  0.60602360  0.17011960  0.34505040  1
  O  O3327  1  0.60602360  0.17011960  0.54505040  1
  O  O3328  1  0.60602360  0.17011960  0.74505040  1
  O  O3329  1  0.60602360  0.17011960  0.94505040  1
  O  O3330  1  0.60602360  0.37011960  0.14505040  1
  O  O3331  1  0.60602360  0.37011960  0.34505040  1
  O  O3332  1  0.60602360  0.37011960  0.54505040  1
  O  O3333  1  0.60602360  0.37011960  0.74505040  1
  O  O3334  1  0.60602360  0.37011960  0.94505040  1
  O  O3335  1  0.60602360  0.57011960  0.14505040  1
  O  O3336  1  0.60602360  0.57011960  0.34505040  1
  O  O3337  1  0.60602360  0.57011960  0.54505040  1
  O  O3338  1  0.60602360  0.57011960  0.74505040  1
  O  O3339  1  0.60602360  0.57011960  0.94505040  1
  O  O3340  1  0.60602360  0.77011960  0.14505040  1
  O  O3341  1  0.60602360  0.77011960  0.34505040  1
  O  O3342  1  0.60602360  0.77011960  0.54505040  1
  O  O3343  1  0.60602360  0.77011960  0.74505040  1
  O  O3344  1  0.60602360  0.77011960  0.94505040  1
  O  O3345  1  0.60602360  0.97011960  0.14505040  1
  O  O3346  1  0.60602360  0.97011960  0.34505040  1
  O  O3347  1  0.60602360  0.97011960  0.54505040  1
  O  O3348  1  0.60602360  0.97011960  0.74505040  1
  O  O3349  1  0.60602360  0.97011960  0.94505040  1
  O  O3350  1  0.80602360  0.17011960  0.14505040  1
  O  O3351  1  0.80602360  0.17011960  0.34505040  1
  O  O3352  1  0.80602360  0.17011960  0.54505040  1
  O  O3353  1  0.80602360  0.17011960  0.74505040  1
  O  O3354  1  0.80602360  0.17011960  0.94505040  1
  O  O3355  1  0.80602360  0.37011960  0.14505040  1
  O  O3356  1  0.80602360  0.37011960  0.34505040  1
  O  O3357  1  0.80602360  0.37011960  0.54505040  1
  O  O3358  1  0.80602360  0.37011960  0.74505040  1
  O  O3359  1  0.80602360  0.37011960  0.94505040  1
  O  O3360  1  0.80602360  0.57011960  0.14505040  1
  O  O3361  1  0.80602360  0.57011960  0.34505040  1
  O  O3362  1  0.80602360  0.57011960  0.54505040  1
  O  O3363  1  0.80602360  0.57011960  0.74505040  1
  O  O3364  1  0.80602360  0.57011960  0.94505040  1
  O  O3365  1  0.80602360  0.77011960  0.14505040  1
  O  O3366  1  0.80602360  0.77011960  0.34505040  1
  O  O3367  1  0.80602360  0.77011960  0.54505040  1
  O  O3368  1  0.80602360  0.77011960  0.74505040  1
  O  O3369  1  0.80602360  0.77011960  0.94505040  1
  O  O3370  1  0.80602360  0.97011960  0.14505040  1
  O  O3371  1  0.80602360  0.97011960  0.34505040  1
  O  O3372  1  0.80602360  0.97011960  0.54505040  1
  O  O3373  1  0.80602360  0.97011960  0.74505040  1
  O  O3374  1  0.80602360  0.97011960  0.94505040  1
  O  O3375  1  0.10602380  0.07011960  0.14505220  1
  O  O3376  1  0.10602380  0.07011960  0.34505220  1
  O  O3377  1  0.10602380  0.07011960  0.54505220  1
  O  O3378  1  0.10602380  0.07011960  0.74505220  1
  O  O3379  1  0.10602380  0.07011960  0.94505220  1
  O  O3380  1  0.10602380  0.27011960  0.14505220  1
  O  O3381  1  0.10602380  0.27011960  0.34505220  1
  O  O3382  1  0.10602380  0.27011960  0.54505220  1
  O  O3383  1  0.10602380  0.27011960  0.74505220  1
  O  O3384  1  0.10602380  0.27011960  0.94505220  1
  O  O3385  1  0.10602380  0.47011960  0.14505220  1
  O  O3386  1  0.10602380  0.47011960  0.34505220  1
  O  O3387  1  0.10602380  0.47011960  0.54505220  1
  O  O3388  1  0.10602380  0.47011960  0.74505220  1
  O  O3389  1  0.10602380  0.47011960  0.94505220  1
  O  O3390  1  0.10602380  0.67011960  0.14505220  1
  O  O3391  1  0.10602380  0.67011960  0.34505220  1
  O  O3392  1  0.10602380  0.67011960  0.54505220  1
  O  O3393  1  0.10602380  0.67011960  0.74505220  1
  O  O3394  1  0.10602380  0.67011960  0.94505220  1
  O  O3395  1  0.10602380  0.87011960  0.14505220  1
  O  O3396  1  0.10602380  0.87011960  0.34505220  1
  O  O3397  1  0.10602380  0.87011960  0.54505220  1
  O  O3398  1  0.10602380  0.87011960  0.74505220  1
  O  O3399  1  0.10602380  0.87011960  0.94505220  1
  O  O3400  1  0.30602380  0.07011960  0.14505220  1
  O  O3401  1  0.30602380  0.07011960  0.34505220  1
  O  O3402  1  0.30602380  0.07011960  0.54505220  1
  O  O3403  1  0.30602380  0.07011960  0.74505220  1
  O  O3404  1  0.30602380  0.07011960  0.94505220  1
  O  O3405  1  0.30602380  0.27011960  0.14505220  1
  O  O3406  1  0.30602380  0.27011960  0.34505220  1
  O  O3407  1  0.30602380  0.27011960  0.54505220  1
  O  O3408  1  0.30602380  0.27011960  0.74505220  1
  O  O3409  1  0.30602380  0.27011960  0.94505220  1
  O  O3410  1  0.30602380  0.47011960  0.14505220  1
  O  O3411  1  0.30602380  0.47011960  0.34505220  1
  O  O3412  1  0.30602380  0.47011960  0.54505220  1
  O  O3413  1  0.30602380  0.47011960  0.74505220  1
  O  O3414  1  0.30602380  0.47011960  0.94505220  1
  O  O3415  1  0.30602380  0.67011960  0.14505220  1
  O  O3416  1  0.30602380  0.67011960  0.34505220  1
  O  O3417  1  0.30602380  0.67011960  0.54505220  1
  O  O3418  1  0.30602380  0.67011960  0.74505220  1
  O  O3419  1  0.30602380  0.67011960  0.94505220  1
  O  O3420  1  0.30602380  0.87011960  0.14505220  1
  O  O3421  1  0.30602380  0.87011960  0.34505220  1
  O  O3422  1  0.30602380  0.87011960  0.54505220  1
  O  O3423  1  0.30602380  0.87011960  0.74505220  1
  O  O3424  1  0.30602380  0.87011960  0.94505220  1
  O  O3425  1  0.50602380  0.07011960  0.14505220  1
  O  O3426  1  0.50602380  0.07011960  0.34505220  1
  O  O3427  1  0.50602380  0.07011960  0.54505220  1
  O  O3428  1  0.50602380  0.07011960  0.74505220  1
  O  O3429  1  0.50602380  0.07011960  0.94505220  1
  O  O3430  1  0.50602380  0.27011960  0.14505220  1
  O  O3431  1  0.50602380  0.27011960  0.34505220  1
  O  O3432  1  0.50602380  0.27011960  0.54505220  1
  O  O3433  1  0.50602380  0.27011960  0.74505220  1
  O  O3434  1  0.50602380  0.27011960  0.94505220  1
  O  O3435  1  0.50602380  0.47011960  0.14505220  1
  O  O3436  1  0.50602380  0.47011960  0.34505220  1
  O  O3437  1  0.50602380  0.47011960  0.54505220  1
  O  O3438  1  0.50602380  0.47011960  0.74505220  1
  O  O3439  1  0.50602380  0.47011960  0.94505220  1
  O  O3440  1  0.50602380  0.67011960  0.14505220  1
  O  O3441  1  0.50602380  0.67011960  0.34505220  1
  O  O3442  1  0.50602380  0.67011960  0.54505220  1
  O  O3443  1  0.50602380  0.67011960  0.74505220  1
  O  O3444  1  0.50602380  0.67011960  0.94505220  1
  O  O3445  1  0.50602380  0.87011960  0.14505220  1
  O  O3446  1  0.50602380  0.87011960  0.34505220  1
  O  O3447  1  0.50602380  0.87011960  0.54505220  1
  O  O3448  1  0.50602380  0.87011960  0.74505220  1
  O  O3449  1  0.50602380  0.87011960  0.94505220  1
  O  O3450  1  0.70602380  0.07011960  0.14505220  1
  O  O3451  1  0.70602380  0.07011960  0.34505220  1
  O  O3452  1  0.70602380  0.07011960  0.54505220  1
  O  O3453  1  0.70602380  0.07011960  0.74505220  1
  O  O3454  1  0.70602380  0.07011960  0.94505220  1
  O  O3455  1  0.70602380  0.27011960  0.14505220  1
  O  O3456  1  0.70602380  0.27011960  0.34505220  1
  O  O3457  1  0.70602380  0.27011960  0.54505220  1
  O  O3458  1  0.70602380  0.27011960  0.74505220  1
  O  O3459  1  0.70602380  0.27011960  0.94505220  1
  O  O3460  1  0.70602380  0.47011960  0.14505220  1
  O  O3461  1  0.70602380  0.47011960  0.34505220  1
  O  O3462  1  0.70602380  0.47011960  0.54505220  1
  O  O3463  1  0.70602380  0.47011960  0.74505220  1
  O  O3464  1  0.70602380  0.47011960  0.94505220  1
  O  O3465  1  0.70602380  0.67011960  0.14505220  1
  O  O3466  1  0.70602380  0.67011960  0.34505220  1
  O  O3467  1  0.70602380  0.67011960  0.54505220  1
  O  O3468  1  0.70602380  0.67011960  0.74505220  1
  O  O3469  1  0.70602380  0.67011960  0.94505220  1
  O  O3470  1  0.70602380  0.87011960  0.14505220  1
  O  O3471  1  0.70602380  0.87011960  0.34505220  1
  O  O3472  1  0.70602380  0.87011960  0.54505220  1
  O  O3473  1  0.70602380  0.87011960  0.74505220  1
  O  O3474  1  0.70602380  0.87011960  0.94505220  1
  O  O3475  1  0.90602380  0.07011960  0.14505220  1
  O  O3476  1  0.90602380  0.07011960  0.34505220  1
  O  O3477  1  0.90602380  0.07011960  0.54505220  1
  O  O3478  1  0.90602380  0.07011960  0.74505220  1
  O  O3479  1  0.90602380  0.07011960  0.94505220  1
  O  O3480  1  0.90602380  0.27011960  0.14505220  1
  O  O3481  1  0.90602380  0.27011960  0.34505220  1
  O  O3482  1  0.90602380  0.27011960  0.54505220  1
  O  O3483  1  0.90602380  0.27011960  0.74505220  1
  O  O3484  1  0.90602380  0.27011960  0.94505220  1
  O  O3485  1  0.90602380  0.47011960  0.14505220  1
  O  O3486  1  0.90602380  0.47011960  0.34505220  1
  O  O3487  1  0.90602380  0.47011960  0.54505220  1
  O  O3488  1  0.90602380  0.47011960  0.74505220  1
  O  O3489  1  0.90602380  0.47011960  0.94505220  1
  O  O3490  1  0.90602380  0.67011960  0.14505220  1
  O  O3491  1  0.90602380  0.67011960  0.34505220  1
  O  O3492  1  0.90602380  0.67011960  0.54505220  1
  O  O3493  1  0.90602380  0.67011960  0.74505220  1
  O  O3494  1  0.90602380  0.67011960  0.94505220  1
  O  O3495  1  0.90602380  0.87011960  0.14505220  1
  O  O3496  1  0.90602380  0.87011960  0.34505220  1
  O  O3497  1  0.90602380  0.87011960  0.54505220  1
  O  O3498  1  0.90602380  0.87011960  0.74505220  1
  O  O3499  1  0.90602380  0.87011960  0.94505220  1
  O  O3500  1  0.05109020  0.01519280  0.05493580  1
  O  O3501  1  0.05109020  0.01519280  0.25493580  1
  O  O3502  1  0.05109020  0.01519280  0.45493580  1
  O  O3503  1  0.05109020  0.01519280  0.65493580  1
  O  O3504  1  0.05109020  0.01519280  0.85493580  1
  O  O3505  1  0.05109020  0.21519280  0.05493580  1
  O  O3506  1  0.05109020  0.21519280  0.25493580  1
  O  O3507  1  0.05109020  0.21519280  0.45493580  1
  O  O3508  1  0.05109020  0.21519280  0.65493580  1
  O  O3509  1  0.05109020  0.21519280  0.85493580  1
  O  O3510  1  0.05109020  0.41519280  0.05493580  1
  O  O3511  1  0.05109020  0.41519280  0.25493580  1
  O  O3512  1  0.05109020  0.41519280  0.45493580  1
  O  O3513  1  0.05109020  0.41519280  0.65493580  1
  O  O3514  1  0.05109020  0.41519280  0.85493580  1
  O  O3515  1  0.05109020  0.61519280  0.05493580  1
  O  O3516  1  0.05109020  0.61519280  0.25493580  1
  O  O3517  1  0.05109020  0.61519280  0.45493580  1
  O  O3518  1  0.05109020  0.61519280  0.65493580  1
  O  O3519  1  0.05109020  0.61519280  0.85493580  1
  O  O3520  1  0.05109020  0.81519280  0.05493580  1
  O  O3521  1  0.05109020  0.81519280  0.25493580  1
  O  O3522  1  0.05109020  0.81519280  0.45493580  1
  O  O3523  1  0.05109020  0.81519280  0.65493580  1
  O  O3524  1  0.05109020  0.81519280  0.85493580  1
  O  O3525  1  0.25109020  0.01519280  0.05493580  1
  O  O3526  1  0.25109020  0.01519280  0.25493580  1
  O  O3527  1  0.25109020  0.01519280  0.45493580  1
  O  O3528  1  0.25109020  0.01519280  0.65493580  1
  O  O3529  1  0.25109020  0.01519280  0.85493580  1
  O  O3530  1  0.25109020  0.21519280  0.05493580  1
  O  O3531  1  0.25109020  0.21519280  0.25493580  1
  O  O3532  1  0.25109020  0.21519280  0.45493580  1
  O  O3533  1  0.25109020  0.21519280  0.65493580  1
  O  O3534  1  0.25109020  0.21519280  0.85493580  1
  O  O3535  1  0.25109020  0.41519280  0.05493580  1
  O  O3536  1  0.25109020  0.41519280  0.25493580  1
  O  O3537  1  0.25109020  0.41519280  0.45493580  1
  O  O3538  1  0.25109020  0.41519280  0.65493580  1
  O  O3539  1  0.25109020  0.41519280  0.85493580  1
  O  O3540  1  0.25109020  0.61519280  0.05493580  1
  O  O3541  1  0.25109020  0.61519280  0.25493580  1
  O  O3542  1  0.25109020  0.61519280  0.45493580  1
  O  O3543  1  0.25109020  0.61519280  0.65493580  1
  O  O3544  1  0.25109020  0.61519280  0.85493580  1
  O  O3545  1  0.25109020  0.81519280  0.05493580  1
  O  O3546  1  0.25109020  0.81519280  0.25493580  1
  O  O3547  1  0.25109020  0.81519280  0.45493580  1
  O  O3548  1  0.25109020  0.81519280  0.65493580  1
  O  O3549  1  0.25109020  0.81519280  0.85493580  1
  O  O3550  1  0.45109020  0.01519280  0.05493580  1
  O  O3551  1  0.45109020  0.01519280  0.25493580  1
  O  O3552  1  0.45109020  0.01519280  0.45493580  1
  O  O3553  1  0.45109020  0.01519280  0.65493580  1
  O  O3554  1  0.45109020  0.01519280  0.85493580  1
  O  O3555  1  0.45109020  0.21519280  0.05493580  1
  O  O3556  1  0.45109020  0.21519280  0.25493580  1
  O  O3557  1  0.45109020  0.21519280  0.45493580  1
  O  O3558  1  0.45109020  0.21519280  0.65493580  1
  O  O3559  1  0.45109020  0.21519280  0.85493580  1
  O  O3560  1  0.45109020  0.41519280  0.05493580  1
  O  O3561  1  0.45109020  0.41519280  0.25493580  1
  O  O3562  1  0.45109020  0.41519280  0.45493580  1
  O  O3563  1  0.45109020  0.41519280  0.65493580  1
  O  O3564  1  0.45109020  0.41519280  0.85493580  1
  O  O3565  1  0.45109020  0.61519280  0.05493580  1
  O  O3566  1  0.45109020  0.61519280  0.25493580  1
  O  O3567  1  0.45109020  0.61519280  0.45493580  1
  O  O3568  1  0.45109020  0.61519280  0.65493580  1
  O  O3569  1  0.45109020  0.61519280  0.85493580  1
  O  O3570  1  0.45109020  0.81519280  0.05493580  1
  O  O3571  1  0.45109020  0.81519280  0.25493580  1
  O  O3572  1  0.45109020  0.81519280  0.45493580  1
  O  O3573  1  0.45109020  0.81519280  0.65493580  1
  O  O3574  1  0.45109020  0.81519280  0.85493580  1
  O  O3575  1  0.65109020  0.01519280  0.05493580  1
  O  O3576  1  0.65109020  0.01519280  0.25493580  1
  O  O3577  1  0.65109020  0.01519280  0.45493580  1
  O  O3578  1  0.65109020  0.01519280  0.65493580  1
  O  O3579  1  0.65109020  0.01519280  0.85493580  1
  O  O3580  1  0.65109020  0.21519280  0.05493580  1
  O  O3581  1  0.65109020  0.21519280  0.25493580  1
  O  O3582  1  0.65109020  0.21519280  0.45493580  1
  O  O3583  1  0.65109020  0.21519280  0.65493580  1
  O  O3584  1  0.65109020  0.21519280  0.85493580  1
  O  O3585  1  0.65109020  0.41519280  0.05493580  1
  O  O3586  1  0.65109020  0.41519280  0.25493580  1
  O  O3587  1  0.65109020  0.41519280  0.45493580  1
  O  O3588  1  0.65109020  0.41519280  0.65493580  1
  O  O3589  1  0.65109020  0.41519280  0.85493580  1
  O  O3590  1  0.65109020  0.61519280  0.05493580  1
  O  O3591  1  0.65109020  0.61519280  0.25493580  1
  O  O3592  1  0.65109020  0.61519280  0.45493580  1
  O  O3593  1  0.65109020  0.61519280  0.65493580  1
  O  O3594  1  0.65109020  0.61519280  0.85493580  1
  O  O3595  1  0.65109020  0.81519280  0.05493580  1
  O  O3596  1  0.65109020  0.81519280  0.25493580  1
  O  O3597  1  0.65109020  0.81519280  0.45493580  1
  O  O3598  1  0.65109020  0.81519280  0.65493580  1
  O  O3599  1  0.65109020  0.81519280  0.85493580  1
  O  O3600  1  0.85109020  0.01519280  0.05493580  1
  O  O3601  1  0.85109020  0.01519280  0.25493580  1
  O  O3602  1  0.85109020  0.01519280  0.45493580  1
  O  O3603  1  0.85109020  0.01519280  0.65493580  1
  O  O3604  1  0.85109020  0.01519280  0.85493580  1
  O  O3605  1  0.85109020  0.21519280  0.05493580  1
  O  O3606  1  0.85109020  0.21519280  0.25493580  1
  O  O3607  1  0.85109020  0.21519280  0.45493580  1
  O  O3608  1  0.85109020  0.21519280  0.65493580  1
  O  O3609  1  0.85109020  0.21519280  0.85493580  1
  O  O3610  1  0.85109020  0.41519280  0.05493580  1
  O  O3611  1  0.85109020  0.41519280  0.25493580  1
  O  O3612  1  0.85109020  0.41519280  0.45493580  1
  O  O3613  1  0.85109020  0.41519280  0.65493580  1
  O  O3614  1  0.85109020  0.41519280  0.85493580  1
  O  O3615  1  0.85109020  0.61519280  0.05493580  1
  O  O3616  1  0.85109020  0.61519280  0.25493580  1
  O  O3617  1  0.85109020  0.61519280  0.45493580  1
  O  O3618  1  0.85109020  0.61519280  0.65493580  1
  O  O3619  1  0.85109020  0.61519280  0.85493580  1
  O  O3620  1  0.85109020  0.81519280  0.05493580  1
  O  O3621  1  0.85109020  0.81519280  0.25493580  1
  O  O3622  1  0.85109020  0.81519280  0.45493580  1
  O  O3623  1  0.85109020  0.81519280  0.65493580  1
  O  O3624  1  0.85109020  0.81519280  0.85493580  1
  O  O3625  1  0.15109120  0.11519220  0.05493620  1
  O  O3626  1  0.15109120  0.11519220  0.25493620  1
  O  O3627  1  0.15109120  0.11519220  0.45493620  1
  O  O3628  1  0.15109120  0.11519220  0.65493620  1
  O  O3629  1  0.15109120  0.11519220  0.85493620  1
  O  O3630  1  0.15109120  0.31519220  0.05493620  1
  O  O3631  1  0.15109120  0.31519220  0.25493620  1
  O  O3632  1  0.15109120  0.31519220  0.45493620  1
  O  O3633  1  0.15109120  0.31519220  0.65493620  1
  O  O3634  1  0.15109120  0.31519220  0.85493620  1
  O  O3635  1  0.15109120  0.51519220  0.05493620  1
  O  O3636  1  0.15109120  0.51519220  0.25493620  1
  O  O3637  1  0.15109120  0.51519220  0.45493620  1
  O  O3638  1  0.15109120  0.51519220  0.65493620  1
  O  O3639  1  0.15109120  0.51519220  0.85493620  1
  O  O3640  1  0.15109120  0.71519220  0.05493620  1
  O  O3641  1  0.15109120  0.71519220  0.25493620  1
  O  O3642  1  0.15109120  0.71519220  0.45493620  1
  O  O3643  1  0.15109120  0.71519220  0.65493620  1
  O  O3644  1  0.15109120  0.71519220  0.85493620  1
  O  O3645  1  0.15109120  0.91519220  0.05493620  1
  O  O3646  1  0.15109120  0.91519220  0.25493620  1
  O  O3647  1  0.15109120  0.91519220  0.45493620  1
  O  O3648  1  0.15109120  0.91519220  0.65493620  1
  O  O3649  1  0.15109120  0.91519220  0.85493620  1
  O  O3650  1  0.35109120  0.11519220  0.05493620  1
  O  O3651  1  0.35109120  0.11519220  0.25493620  1
  O  O3652  1  0.35109120  0.11519220  0.45493620  1
  O  O3653  1  0.35109120  0.11519220  0.65493620  1
  O  O3654  1  0.35109120  0.11519220  0.85493620  1
  O  O3655  1  0.35109120  0.31519220  0.05493620  1
  O  O3656  1  0.35109120  0.31519220  0.25493620  1
  O  O3657  1  0.35109120  0.31519220  0.45493620  1
  O  O3658  1  0.35109120  0.31519220  0.65493620  1
  O  O3659  1  0.35109120  0.31519220  0.85493620  1
  O  O3660  1  0.35109120  0.51519220  0.05493620  1
  O  O3661  1  0.35109120  0.51519220  0.25493620  1
  O  O3662  1  0.35109120  0.51519220  0.45493620  1
  O  O3663  1  0.35109120  0.51519220  0.65493620  1
  O  O3664  1  0.35109120  0.51519220  0.85493620  1
  O  O3665  1  0.35109120  0.71519220  0.05493620  1
  O  O3666  1  0.35109120  0.71519220  0.25493620  1
  O  O3667  1  0.35109120  0.71519220  0.45493620  1
  O  O3668  1  0.35109120  0.71519220  0.65493620  1
  O  O3669  1  0.35109120  0.71519220  0.85493620  1
  O  O3670  1  0.35109120  0.91519220  0.05493620  1
  O  O3671  1  0.35109120  0.91519220  0.25493620  1
  O  O3672  1  0.35109120  0.91519220  0.45493620  1
  O  O3673  1  0.35109120  0.91519220  0.65493620  1
  O  O3674  1  0.35109120  0.91519220  0.85493620  1
  O  O3675  1  0.55109120  0.11519220  0.05493620  1
  O  O3676  1  0.55109120  0.11519220  0.25493620  1
  O  O3677  1  0.55109120  0.11519220  0.45493620  1
  O  O3678  1  0.55109120  0.11519220  0.65493620  1
  O  O3679  1  0.55109120  0.11519220  0.85493620  1
  O  O3680  1  0.55109120  0.31519220  0.05493620  1
  O  O3681  1  0.55109120  0.31519220  0.25493620  1
  O  O3682  1  0.55109120  0.31519220  0.45493620  1
  O  O3683  1  0.55109120  0.31519220  0.65493620  1
  O  O3684  1  0.55109120  0.31519220  0.85493620  1
  O  O3685  1  0.55109120  0.51519220  0.05493620  1
  O  O3686  1  0.55109120  0.51519220  0.25493620  1
  O  O3687  1  0.55109120  0.51519220  0.45493620  1
  O  O3688  1  0.55109120  0.51519220  0.65493620  1
  O  O3689  1  0.55109120  0.51519220  0.85493620  1
  O  O3690  1  0.55109120  0.71519220  0.05493620  1
  O  O3691  1  0.55109120  0.71519220  0.25493620  1
  O  O3692  1  0.55109120  0.71519220  0.45493620  1
  O  O3693  1  0.55109120  0.71519220  0.65493620  1
  O  O3694  1  0.55109120  0.71519220  0.85493620  1
  O  O3695  1  0.55109120  0.91519220  0.05493620  1
  O  O3696  1  0.55109120  0.91519220  0.25493620  1
  O  O3697  1  0.55109120  0.91519220  0.45493620  1
  O  O3698  1  0.55109120  0.91519220  0.65493620  1
  O  O3699  1  0.55109120  0.91519220  0.85493620  1
  O  O3700  1  0.75109120  0.11519220  0.05493620  1
  O  O3701  1  0.75109120  0.11519220  0.25493620  1
  O  O3702  1  0.75109120  0.11519220  0.45493620  1
  O  O3703  1  0.75109120  0.11519220  0.65493620  1
  O  O3704  1  0.75109120  0.11519220  0.85493620  1
  O  O3705  1  0.75109120  0.31519220  0.05493620  1
  O  O3706  1  0.75109120  0.31519220  0.25493620  1
  O  O3707  1  0.75109120  0.31519220  0.45493620  1
  O  O3708  1  0.75109120  0.31519220  0.65493620  1
  O  O3709  1  0.75109120  0.31519220  0.85493620  1
  O  O3710  1  0.75109120  0.51519220  0.05493620  1
  O  O3711  1  0.75109120  0.51519220  0.25493620  1
  O  O3712  1  0.75109120  0.51519220  0.45493620  1
  O  O3713  1  0.75109120  0.51519220  0.65493620  1
  O  O3714  1  0.75109120  0.51519220  0.85493620  1
  O  O3715  1  0.75109120  0.71519220  0.05493620  1
  O  O3716  1  0.75109120  0.71519220  0.25493620  1
  O  O3717  1  0.75109120  0.71519220  0.45493620  1
  O  O3718  1  0.75109120  0.71519220  0.65493620  1
  O  O3719  1  0.75109120  0.71519220  0.85493620  1
  O  O3720  1  0.75109120  0.91519220  0.05493620  1
  O  O3721  1  0.75109120  0.91519220  0.25493620  1
  O  O3722  1  0.75109120  0.91519220  0.45493620  1
  O  O3723  1  0.75109120  0.91519220  0.65493620  1
  O  O3724  1  0.75109120  0.91519220  0.85493620  1
  O  O3725  1  0.95109120  0.11519220  0.05493620  1
  O  O3726  1  0.95109120  0.11519220  0.25493620  1
  O  O3727  1  0.95109120  0.11519220  0.45493620  1
  O  O3728  1  0.95109120  0.11519220  0.65493620  1
  O  O3729  1  0.95109120  0.11519220  0.85493620  1
  O  O3730  1  0.95109120  0.31519220  0.05493620  1
  O  O3731  1  0.95109120  0.31519220  0.25493620  1
  O  O3732  1  0.95109120  0.31519220  0.45493620  1
  O  O3733  1  0.95109120  0.31519220  0.65493620  1
  O  O3734  1  0.95109120  0.31519220  0.85493620  1
  O  O3735  1  0.95109120  0.51519220  0.05493620  1
  O  O3736  1  0.95109120  0.51519220  0.25493620  1
  O  O3737  1  0.95109120  0.51519220  0.45493620  1
  O  O3738  1  0.95109120  0.51519220  0.65493620  1
  O  O3739  1  0.95109120  0.51519220  0.85493620  1
  O  O3740  1  0.95109120  0.71519220  0.05493620  1
  O  O3741  1  0.95109120  0.71519220  0.25493620  1
  O  O3742  1  0.95109120  0.71519220  0.45493620  1
  O  O3743  1  0.95109120  0.71519220  0.65493620  1
  O  O3744  1  0.95109120  0.71519220  0.85493620  1
  O  O3745  1  0.95109120  0.91519220  0.05493620  1
  O  O3746  1  0.95109120  0.91519220  0.25493620  1
  O  O3747  1  0.95109120  0.91519220  0.45493620  1
  O  O3748  1  0.95109120  0.91519220  0.65493620  1
  O  O3749  1  0.95109120  0.91519220  0.85493620  1
  O  O3750  1  0.07011920  0.10602100  0.04505220  1
  O  O3751  1  0.07011920  0.10602100  0.24505220  1
  O  O3752  1  0.07011920  0.10602100  0.44505220  1
  O  O3753  1  0.07011920  0.10602100  0.64505220  1
  O  O3754  1  0.07011920  0.10602100  0.84505220  1
  O  O3755  1  0.07011920  0.30602100  0.04505220  1
  O  O3756  1  0.07011920  0.30602100  0.24505220  1
  O  O3757  1  0.07011920  0.30602100  0.44505220  1
  O  O3758  1  0.07011920  0.30602100  0.64505220  1
  O  O3759  1  0.07011920  0.30602100  0.84505220  1
  O  O3760  1  0.07011920  0.50602100  0.04505220  1
  O  O3761  1  0.07011920  0.50602100  0.24505220  1
  O  O3762  1  0.07011920  0.50602100  0.44505220  1
  O  O3763  1  0.07011920  0.50602100  0.64505220  1
  O  O3764  1  0.07011920  0.50602100  0.84505220  1
  O  O3765  1  0.07011920  0.70602100  0.04505220  1
  O  O3766  1  0.07011920  0.70602100  0.24505220  1
  O  O3767  1  0.07011920  0.70602100  0.44505220  1
  O  O3768  1  0.07011920  0.70602100  0.64505220  1
  O  O3769  1  0.07011920  0.70602100  0.84505220  1
  O  O3770  1  0.07011920  0.90602100  0.04505220  1
  O  O3771  1  0.07011920  0.90602100  0.24505220  1
  O  O3772  1  0.07011920  0.90602100  0.44505220  1
  O  O3773  1  0.07011920  0.90602100  0.64505220  1
  O  O3774  1  0.07011920  0.90602100  0.84505220  1
  O  O3775  1  0.27011920  0.10602100  0.04505220  1
  O  O3776  1  0.27011920  0.10602100  0.24505220  1
  O  O3777  1  0.27011920  0.10602100  0.44505220  1
  O  O3778  1  0.27011920  0.10602100  0.64505220  1
  O  O3779  1  0.27011920  0.10602100  0.84505220  1
  O  O3780  1  0.27011920  0.30602100  0.04505220  1
  O  O3781  1  0.27011920  0.30602100  0.24505220  1
  O  O3782  1  0.27011920  0.30602100  0.44505220  1
  O  O3783  1  0.27011920  0.30602100  0.64505220  1
  O  O3784  1  0.27011920  0.30602100  0.84505220  1
  O  O3785  1  0.27011920  0.50602100  0.04505220  1
  O  O3786  1  0.27011920  0.50602100  0.24505220  1
  O  O3787  1  0.27011920  0.50602100  0.44505220  1
  O  O3788  1  0.27011920  0.50602100  0.64505220  1
  O  O3789  1  0.27011920  0.50602100  0.84505220  1
  O  O3790  1  0.27011920  0.70602100  0.04505220  1
  O  O3791  1  0.27011920  0.70602100  0.24505220  1
  O  O3792  1  0.27011920  0.70602100  0.44505220  1
  O  O3793  1  0.27011920  0.70602100  0.64505220  1
  O  O3794  1  0.27011920  0.70602100  0.84505220  1
  O  O3795  1  0.27011920  0.90602100  0.04505220  1
  O  O3796  1  0.27011920  0.90602100  0.24505220  1
  O  O3797  1  0.27011920  0.90602100  0.44505220  1
  O  O3798  1  0.27011920  0.90602100  0.64505220  1
  O  O3799  1  0.27011920  0.90602100  0.84505220  1
  O  O3800  1  0.47011920  0.10602100  0.04505220  1
  O  O3801  1  0.47011920  0.10602100  0.24505220  1
  O  O3802  1  0.47011920  0.10602100  0.44505220  1
  O  O3803  1  0.47011920  0.10602100  0.64505220  1
  O  O3804  1  0.47011920  0.10602100  0.84505220  1
  O  O3805  1  0.47011920  0.30602100  0.04505220  1
  O  O3806  1  0.47011920  0.30602100  0.24505220  1
  O  O3807  1  0.47011920  0.30602100  0.44505220  1
  O  O3808  1  0.47011920  0.30602100  0.64505220  1
  O  O3809  1  0.47011920  0.30602100  0.84505220  1
  O  O3810  1  0.47011920  0.50602100  0.04505220  1
  O  O3811  1  0.47011920  0.50602100  0.24505220  1
  O  O3812  1  0.47011920  0.50602100  0.44505220  1
  O  O3813  1  0.47011920  0.50602100  0.64505220  1
  O  O3814  1  0.47011920  0.50602100  0.84505220  1
  O  O3815  1  0.47011920  0.70602100  0.04505220  1
  O  O3816  1  0.47011920  0.70602100  0.24505220  1
  O  O3817  1  0.47011920  0.70602100  0.44505220  1
  O  O3818  1  0.47011920  0.70602100  0.64505220  1
  O  O3819  1  0.47011920  0.70602100  0.84505220  1
  O  O3820  1  0.47011920  0.90602100  0.04505220  1
  O  O3821  1  0.47011920  0.90602100  0.24505220  1
  O  O3822  1  0.47011920  0.90602100  0.44505220  1
  O  O3823  1  0.47011920  0.90602100  0.64505220  1
  O  O3824  1  0.47011920  0.90602100  0.84505220  1
  O  O3825  1  0.67011920  0.10602100  0.04505220  1
  O  O3826  1  0.67011920  0.10602100  0.24505220  1
  O  O3827  1  0.67011920  0.10602100  0.44505220  1
  O  O3828  1  0.67011920  0.10602100  0.64505220  1
  O  O3829  1  0.67011920  0.10602100  0.84505220  1
  O  O3830  1  0.67011920  0.30602100  0.04505220  1
  O  O3831  1  0.67011920  0.30602100  0.24505220  1
  O  O3832  1  0.67011920  0.30602100  0.44505220  1
  O  O3833  1  0.67011920  0.30602100  0.64505220  1
  O  O3834  1  0.67011920  0.30602100  0.84505220  1
  O  O3835  1  0.67011920  0.50602100  0.04505220  1
  O  O3836  1  0.67011920  0.50602100  0.24505220  1
  O  O3837  1  0.67011920  0.50602100  0.44505220  1
  O  O3838  1  0.67011920  0.50602100  0.64505220  1
  O  O3839  1  0.67011920  0.50602100  0.84505220  1
  O  O3840  1  0.67011920  0.70602100  0.04505220  1
  O  O3841  1  0.67011920  0.70602100  0.24505220  1
  O  O3842  1  0.67011920  0.70602100  0.44505220  1
  O  O3843  1  0.67011920  0.70602100  0.64505220  1
  O  O3844  1  0.67011920  0.70602100  0.84505220  1
  O  O3845  1  0.67011920  0.90602100  0.04505220  1
  O  O3846  1  0.67011920  0.90602100  0.24505220  1
  O  O3847  1  0.67011920  0.90602100  0.44505220  1
  O  O3848  1  0.67011920  0.90602100  0.64505220  1
  O  O3849  1  0.67011920  0.90602100  0.84505220  1
  O  O3850  1  0.87011920  0.10602100  0.04505220  1
  O  O3851  1  0.87011920  0.10602100  0.24505220  1
  O  O3852  1  0.87011920  0.10602100  0.44505220  1
  O  O3853  1  0.87011920  0.10602100  0.64505220  1
  O  O3854  1  0.87011920  0.10602100  0.84505220  1
  O  O3855  1  0.87011920  0.30602100  0.04505220  1
  O  O3856  1  0.87011920  0.30602100  0.24505220  1
  O  O3857  1  0.87011920  0.30602100  0.44505220  1
  O  O3858  1  0.87011920  0.30602100  0.64505220  1
  O  O3859  1  0.87011920  0.30602100  0.84505220  1
  O  O3860  1  0.87011920  0.50602100  0.04505220  1
  O  O3861  1  0.87011920  0.50602100  0.24505220  1
  O  O3862  1  0.87011920  0.50602100  0.44505220  1
  O  O3863  1  0.87011920  0.50602100  0.64505220  1
  O  O3864  1  0.87011920  0.50602100  0.84505220  1
  O  O3865  1  0.87011920  0.70602100  0.04505220  1
  O  O3866  1  0.87011920  0.70602100  0.24505220  1
  O  O3867  1  0.87011920  0.70602100  0.44505220  1
  O  O3868  1  0.87011920  0.70602100  0.64505220  1
  O  O3869  1  0.87011920  0.70602100  0.84505220  1
  O  O3870  1  0.87011920  0.90602100  0.04505220  1
  O  O3871  1  0.87011920  0.90602100  0.24505220  1
  O  O3872  1  0.87011920  0.90602100  0.44505220  1
  O  O3873  1  0.87011920  0.90602100  0.64505220  1
  O  O3874  1  0.87011920  0.90602100  0.84505220  1
  O  O3875  1  0.17011860  0.00601840  0.04505060  1
  O  O3876  1  0.17011860  0.00601840  0.24505060  1
  O  O3877  1  0.17011860  0.00601840  0.44505060  1
  O  O3878  1  0.17011860  0.00601840  0.64505060  1
  O  O3879  1  0.17011860  0.00601840  0.84505060  1
  O  O3880  1  0.17011860  0.20601840  0.04505060  1
  O  O3881  1  0.17011860  0.20601840  0.24505060  1
  O  O3882  1  0.17011860  0.20601840  0.44505060  1
  O  O3883  1  0.17011860  0.20601840  0.64505060  1
  O  O3884  1  0.17011860  0.20601840  0.84505060  1
  O  O3885  1  0.17011860  0.40601840  0.04505060  1
  O  O3886  1  0.17011860  0.40601840  0.24505060  1
  O  O3887  1  0.17011860  0.40601840  0.44505060  1
  O  O3888  1  0.17011860  0.40601840  0.64505060  1
  O  O3889  1  0.17011860  0.40601840  0.84505060  1
  O  O3890  1  0.17011860  0.60601840  0.04505060  1
  O  O3891  1  0.17011860  0.60601840  0.24505060  1
  O  O3892  1  0.17011860  0.60601840  0.44505060  1
  O  O3893  1  0.17011860  0.60601840  0.64505060  1
  O  O3894  1  0.17011860  0.60601840  0.84505060  1
  O  O3895  1  0.17011860  0.80601840  0.04505060  1
  O  O3896  1  0.17011860  0.80601840  0.24505060  1
  O  O3897  1  0.17011860  0.80601840  0.44505060  1
  O  O3898  1  0.17011860  0.80601840  0.64505060  1
  O  O3899  1  0.17011860  0.80601840  0.84505060  1
  O  O3900  1  0.37011860  0.00601840  0.04505060  1
  O  O3901  1  0.37011860  0.00601840  0.24505060  1
  O  O3902  1  0.37011860  0.00601840  0.44505060  1
  O  O3903  1  0.37011860  0.00601840  0.64505060  1
  O  O3904  1  0.37011860  0.00601840  0.84505060  1
  O  O3905  1  0.37011860  0.20601840  0.04505060  1
  O  O3906  1  0.37011860  0.20601840  0.24505060  1
  O  O3907  1  0.37011860  0.20601840  0.44505060  1
  O  O3908  1  0.37011860  0.20601840  0.64505060  1
  O  O3909  1  0.37011860  0.20601840  0.84505060  1
  O  O3910  1  0.37011860  0.40601840  0.04505060  1
  O  O3911  1  0.37011860  0.40601840  0.24505060  1
  O  O3912  1  0.37011860  0.40601840  0.44505060  1
  O  O3913  1  0.37011860  0.40601840  0.64505060  1
  O  O3914  1  0.37011860  0.40601840  0.84505060  1
  O  O3915  1  0.37011860  0.60601840  0.04505060  1
  O  O3916  1  0.37011860  0.60601840  0.24505060  1
  O  O3917  1  0.37011860  0.60601840  0.44505060  1
  O  O3918  1  0.37011860  0.60601840  0.64505060  1
  O  O3919  1  0.37011860  0.60601840  0.84505060  1
  O  O3920  1  0.37011860  0.80601840  0.04505060  1
  O  O3921  1  0.37011860  0.80601840  0.24505060  1
  O  O3922  1  0.37011860  0.80601840  0.44505060  1
  O  O3923  1  0.37011860  0.80601840  0.64505060  1
  O  O3924  1  0.37011860  0.80601840  0.84505060  1
  O  O3925  1  0.57011860  0.00601840  0.04505060  1
  O  O3926  1  0.57011860  0.00601840  0.24505060  1
  O  O3927  1  0.57011860  0.00601840  0.44505060  1
  O  O3928  1  0.57011860  0.00601840  0.64505060  1
  O  O3929  1  0.57011860  0.00601840  0.84505060  1
  O  O3930  1  0.57011860  0.20601840  0.04505060  1
  O  O3931  1  0.57011860  0.20601840  0.24505060  1
  O  O3932  1  0.57011860  0.20601840  0.44505060  1
  O  O3933  1  0.57011860  0.20601840  0.64505060  1
  O  O3934  1  0.57011860  0.20601840  0.84505060  1
  O  O3935  1  0.57011860  0.40601840  0.04505060  1
  O  O3936  1  0.57011860  0.40601840  0.24505060  1
  O  O3937  1  0.57011860  0.40601840  0.44505060  1
  O  O3938  1  0.57011860  0.40601840  0.64505060  1
  O  O3939  1  0.57011860  0.40601840  0.84505060  1
  O  O3940  1  0.57011860  0.60601840  0.04505060  1
  O  O3941  1  0.57011860  0.60601840  0.24505060  1
  O  O3942  1  0.57011860  0.60601840  0.44505060  1
  O  O3943  1  0.57011860  0.60601840  0.64505060  1
  O  O3944  1  0.57011860  0.60601840  0.84505060  1
  O  O3945  1  0.57011860  0.80601840  0.04505060  1
  O  O3946  1  0.57011860  0.80601840  0.24505060  1
  O  O3947  1  0.57011860  0.80601840  0.44505060  1
  O  O3948  1  0.57011860  0.80601840  0.64505060  1
  O  O3949  1  0.57011860  0.80601840  0.84505060  1
  O  O3950  1  0.77011860  0.00601840  0.04505060  1
  O  O3951  1  0.77011860  0.00601840  0.24505060  1
  O  O3952  1  0.77011860  0.00601840  0.44505060  1
  O  O3953  1  0.77011860  0.00601840  0.64505060  1
  O  O3954  1  0.77011860  0.00601840  0.84505060  1
  O  O3955  1  0.77011860  0.20601840  0.04505060  1
  O  O3956  1  0.77011860  0.20601840  0.24505060  1
  O  O3957  1  0.77011860  0.20601840  0.44505060  1
  O  O3958  1  0.77011860  0.20601840  0.64505060  1
  O  O3959  1  0.77011860  0.20601840  0.84505060  1
  O  O3960  1  0.77011860  0.40601840  0.04505060  1
  O  O3961  1  0.77011860  0.40601840  0.24505060  1
  O  O3962  1  0.77011860  0.40601840  0.44505060  1
  O  O3963  1  0.77011860  0.40601840  0.64505060  1
  O  O3964  1  0.77011860  0.40601840  0.84505060  1
  O  O3965  1  0.77011860  0.60601840  0.04505060  1
  O  O3966  1  0.77011860  0.60601840  0.24505060  1
  O  O3967  1  0.77011860  0.60601840  0.44505060  1
  O  O3968  1  0.77011860  0.60601840  0.64505060  1
  O  O3969  1  0.77011860  0.60601840  0.84505060  1
  O  O3970  1  0.77011860  0.80601840  0.04505060  1
  O  O3971  1  0.77011860  0.80601840  0.24505060  1
  O  O3972  1  0.77011860  0.80601840  0.44505060  1
  O  O3973  1  0.77011860  0.80601840  0.64505060  1
  O  O3974  1  0.77011860  0.80601840  0.84505060  1
  O  O3975  1  0.97011860  0.00601840  0.04505060  1
  O  O3976  1  0.97011860  0.00601840  0.24505060  1
  O  O3977  1  0.97011860  0.00601840  0.44505060  1
  O  O3978  1  0.97011860  0.00601840  0.64505060  1
  O  O3979  1  0.97011860  0.00601840  0.84505060  1
  O  O3980  1  0.97011860  0.20601840  0.04505060  1
  O  O3981  1  0.97011860  0.20601840  0.24505060  1
  O  O3982  1  0.97011860  0.20601840  0.44505060  1
  O  O3983  1  0.97011860  0.20601840  0.64505060  1
  O  O3984  1  0.97011860  0.20601840  0.84505060  1
  O  O3985  1  0.97011860  0.40601840  0.04505060  1
  O  O3986  1  0.97011860  0.40601840  0.24505060  1
  O  O3987  1  0.97011860  0.40601840  0.44505060  1
  O  O3988  1  0.97011860  0.40601840  0.64505060  1
  O  O3989  1  0.97011860  0.40601840  0.84505060  1
  O  O3990  1  0.97011860  0.60601840  0.04505060  1
  O  O3991  1  0.97011860  0.60601840  0.24505060  1
  O  O3992  1  0.97011860  0.60601840  0.44505060  1
  O  O3993  1  0.97011860  0.60601840  0.64505060  1
  O  O3994  1  0.97011860  0.60601840  0.84505060  1
  O  O3995  1  0.97011860  0.80601840  0.04505060  1
  O  O3996  1  0.97011860  0.80601840  0.24505060  1
  O  O3997  1  0.97011860  0.80601840  0.44505060  1
  O  O3998  1  0.97011860  0.80601840  0.64505060  1
  O  O3999  1  0.97011860  0.80601840  0.84505060  1
