# generated using pymatgen
data_Li2Cr3SbO8
_symmetry_space_group_name_H-M   'P 1'
_cell_length_a   34.16305600
_cell_length_b   34.16305600
_cell_length_c   34.16305600
_cell_angle_alpha   90.00000000
_cell_angle_beta   90.00000000
_cell_angle_gamma   90.00000000
_symmetry_Int_Tables_number   1
_chemical_formula_structural   Li2Cr3SbO8
_chemical_formula_sum   'Li512 Cr768 Sb256 O2048'
_cell_volume   39872.19444364
_cell_formula_units_Z   256
loop_
 _symmetry_equiv_pos_site_id
 _symmetry_equiv_pos_as_xyz
  1  'x, y, z'
loop_
 _atom_site_type_symbol
 _atom_site_label
 _atom_site_symmetry_multiplicity
 _atom_site_fract_x
 _atom_site_fract_y
 _atom_site_fract_z
 _atom_site_occupancy
  Li  Li0  1  0.12422175  0.12422175  0.12422175  1
  Li  Li1  1  0.12422175  0.12422175  0.37422175  1
  Li  Li2  1  0.12422175  0.12422175  0.62422175  1
  Li  Li3  1  0.12422175  0.12422175  0.87422175  1
  Li  Li4  1  0.12422175  0.37422175  0.12422175  1
  Li  Li5  1  0.12422175  0.37422175  0.37422175  1
  Li  Li6  1  0.12422175  0.37422175  0.62422175  1
  Li  Li7  1  0.12422175  0.37422175  0.87422175  1
  Li  Li8  1  0.12422175  0.62422175  0.12422175  1
  Li  Li9  1  0.12422175  0.62422175  0.37422175  1
  Li  Li10  1  0.12422175  0.62422175  0.62422175  1
  Li  Li11  1  0.12422175  0.62422175  0.87422175  1
  Li  Li12  1  0.12422175  0.87422175  0.12422175  1
  Li  Li13  1  0.12422175  0.87422175  0.37422175  1
  Li  Li14  1  0.12422175  0.87422175  0.62422175  1
  Li  Li15  1  0.12422175  0.87422175  0.87422175  1
  Li  Li16  1  0.37422175  0.12422175  0.12422175  1
  Li  Li17  1  0.37422175  0.12422175  0.37422175  1
  Li  Li18  1  0.37422175  0.12422175  0.62422175  1
  Li  Li19  1  0.37422175  0.12422175  0.87422175  1
  Li  Li20  1  0.37422175  0.37422175  0.12422175  1
  Li  Li21  1  0.37422175  0.37422175  0.37422175  1
  Li  Li22  1  0.37422175  0.37422175  0.62422175  1
  Li  Li23  1  0.37422175  0.37422175  0.87422175  1
  Li  Li24  1  0.37422175  0.62422175  0.12422175  1
  Li  Li25  1  0.37422175  0.62422175  0.37422175  1
  Li  Li26  1  0.37422175  0.62422175  0.62422175  1
  Li  Li27  1  0.37422175  0.62422175  0.87422175  1
  Li  Li28  1  0.37422175  0.87422175  0.12422175  1
  Li  Li29  1  0.37422175  0.87422175  0.37422175  1
  Li  Li30  1  0.37422175  0.87422175  0.62422175  1
  Li  Li31  1  0.37422175  0.87422175  0.87422175  1
  Li  Li32  1  0.62422175  0.12422175  0.12422175  1
  Li  Li33  1  0.62422175  0.12422175  0.37422175  1
  Li  Li34  1  0.62422175  0.12422175  0.62422175  1
  Li  Li35  1  0.62422175  0.12422175  0.87422175  1
  Li  Li36  1  0.62422175  0.37422175  0.12422175  1
  Li  Li37  1  0.62422175  0.37422175  0.37422175  1
  Li  Li38  1  0.62422175  0.37422175  0.62422175  1
  Li  Li39  1  0.62422175  0.37422175  0.87422175  1
  Li  Li40  1  0.62422175  0.62422175  0.12422175  1
  Li  Li41  1  0.62422175  0.62422175  0.37422175  1
  Li  Li42  1  0.62422175  0.62422175  0.62422175  1
  Li  Li43  1  0.62422175  0.62422175  0.87422175  1
  Li  Li44  1  0.62422175  0.87422175  0.12422175  1
  Li  Li45  1  0.62422175  0.87422175  0.37422175  1
  Li  Li46  1  0.62422175  0.87422175  0.62422175  1
  Li  Li47  1  0.62422175  0.87422175  0.87422175  1
  Li  Li48  1  0.87422175  0.12422175  0.12422175  1
  Li  Li49  1  0.87422175  0.12422175  0.37422175  1
  Li  Li50  1  0.87422175  0.12422175  0.62422175  1
  Li  Li51  1  0.87422175  0.12422175  0.87422175  1
  Li  Li52  1  0.87422175  0.37422175  0.12422175  1
  Li  Li53  1  0.87422175  0.37422175  0.37422175  1
  Li  Li54  1  0.87422175  0.37422175  0.62422175  1
  Li  Li55  1  0.87422175  0.37422175  0.87422175  1
  Li  Li56  1  0.87422175  0.62422175  0.12422175  1
  Li  Li57  1  0.87422175  0.62422175  0.37422175  1
  Li  Li58  1  0.87422175  0.62422175  0.62422175  1
  Li  Li59  1  0.87422175  0.62422175  0.87422175  1
  Li  Li60  1  0.87422175  0.87422175  0.12422175  1
  Li  Li61  1  0.87422175  0.87422175  0.37422175  1
  Li  Li62  1  0.87422175  0.87422175  0.62422175  1
  Li  Li63  1  0.87422175  0.87422175  0.87422175  1
  Li  Li64  1  0.18827825  0.18827825  0.18827825  1
  Li  Li65  1  0.18827825  0.18827825  0.43827825  1
  Li  Li66  1  0.18827825  0.18827825  0.68827825  1
  Li  Li67  1  0.18827825  0.18827825  0.93827825  1
  Li  Li68  1  0.18827825  0.43827825  0.18827825  1
  Li  Li69  1  0.18827825  0.43827825  0.43827825  1
  Li  Li70  1  0.18827825  0.43827825  0.68827825  1
  Li  Li71  1  0.18827825  0.43827825  0.93827825  1
  Li  Li72  1  0.18827825  0.68827825  0.18827825  1
  Li  Li73  1  0.18827825  0.68827825  0.43827825  1
  Li  Li74  1  0.18827825  0.68827825  0.68827825  1
  Li  Li75  1  0.18827825  0.68827825  0.93827825  1
  Li  Li76  1  0.18827825  0.93827825  0.18827825  1
  Li  Li77  1  0.18827825  0.93827825  0.43827825  1
  Li  Li78  1  0.18827825  0.93827825  0.68827825  1
  Li  Li79  1  0.18827825  0.93827825  0.93827825  1
  Li  Li80  1  0.43827825  0.18827825  0.18827825  1
  Li  Li81  1  0.43827825  0.18827825  0.43827825  1
  Li  Li82  1  0.43827825  0.18827825  0.68827825  1
  Li  Li83  1  0.43827825  0.18827825  0.93827825  1
  Li  Li84  1  0.43827825  0.43827825  0.18827825  1
  Li  Li85  1  0.43827825  0.43827825  0.43827825  1
  Li  Li86  1  0.43827825  0.43827825  0.68827825  1
  Li  Li87  1  0.43827825  0.43827825  0.93827825  1
  Li  Li88  1  0.43827825  0.68827825  0.18827825  1
  Li  Li89  1  0.43827825  0.68827825  0.43827825  1
  Li  Li90  1  0.43827825  0.68827825  0.68827825  1
  Li  Li91  1  0.43827825  0.68827825  0.93827825  1
  Li  Li92  1  0.43827825  0.93827825  0.18827825  1
  Li  Li93  1  0.43827825  0.93827825  0.43827825  1
  Li  Li94  1  0.43827825  0.93827825  0.68827825  1
  Li  Li95  1  0.43827825  0.93827825  0.93827825  1
  Li  Li96  1  0.68827825  0.18827825  0.18827825  1
  Li  Li97  1  0.68827825  0.18827825  0.43827825  1
  Li  Li98  1  0.68827825  0.18827825  0.68827825  1
  Li  Li99  1  0.68827825  0.18827825  0.93827825  1
  Li  Li100  1  0.68827825  0.43827825  0.18827825  1
  Li  Li101  1  0.68827825  0.43827825  0.43827825  1
  Li  Li102  1  0.68827825  0.43827825  0.68827825  1
  Li  Li103  1  0.68827825  0.43827825  0.93827825  1
  Li  Li104  1  0.68827825  0.68827825  0.18827825  1
  Li  Li105  1  0.68827825  0.68827825  0.43827825  1
  Li  Li106  1  0.68827825  0.68827825  0.68827825  1
  Li  Li107  1  0.68827825  0.68827825  0.93827825  1
  Li  Li108  1  0.68827825  0.93827825  0.18827825  1
  Li  Li109  1  0.68827825  0.93827825  0.43827825  1
  Li  Li110  1  0.68827825  0.93827825  0.68827825  1
  Li  Li111  1  0.68827825  0.93827825  0.93827825  1
  Li  Li112  1  0.93827825  0.18827825  0.18827825  1
  Li  Li113  1  0.93827825  0.18827825  0.43827825  1
  Li  Li114  1  0.93827825  0.18827825  0.68827825  1
  Li  Li115  1  0.93827825  0.18827825  0.93827825  1
  Li  Li116  1  0.93827825  0.43827825  0.18827825  1
  Li  Li117  1  0.93827825  0.43827825  0.43827825  1
  Li  Li118  1  0.93827825  0.43827825  0.68827825  1
  Li  Li119  1  0.93827825  0.43827825  0.93827825  1
  Li  Li120  1  0.93827825  0.68827825  0.18827825  1
  Li  Li121  1  0.93827825  0.68827825  0.43827825  1
  Li  Li122  1  0.93827825  0.68827825  0.68827825  1
  Li  Li123  1  0.93827825  0.68827825  0.93827825  1
  Li  Li124  1  0.93827825  0.93827825  0.18827825  1
  Li  Li125  1  0.93827825  0.93827825  0.43827825  1
  Li  Li126  1  0.93827825  0.93827825  0.68827825  1
  Li  Li127  1  0.93827825  0.93827825  0.93827825  1
  Li  Li128  1  0.18672175  0.06172175  0.06327825  1
  Li  Li129  1  0.18672175  0.06172175  0.31327825  1
  Li  Li130  1  0.18672175  0.06172175  0.56327825  1
  Li  Li131  1  0.18672175  0.06172175  0.81327825  1
  Li  Li132  1  0.18672175  0.31172175  0.06327825  1
  Li  Li133  1  0.18672175  0.31172175  0.31327825  1
  Li  Li134  1  0.18672175  0.31172175  0.56327825  1
  Li  Li135  1  0.18672175  0.31172175  0.81327825  1
  Li  Li136  1  0.18672175  0.56172175  0.06327825  1
  Li  Li137  1  0.18672175  0.56172175  0.31327825  1
  Li  Li138  1  0.18672175  0.56172175  0.56327825  1
  Li  Li139  1  0.18672175  0.56172175  0.81327825  1
  Li  Li140  1  0.18672175  0.81172175  0.06327825  1
  Li  Li141  1  0.18672175  0.81172175  0.31327825  1
  Li  Li142  1  0.18672175  0.81172175  0.56327825  1
  Li  Li143  1  0.18672175  0.81172175  0.81327825  1
  Li  Li144  1  0.43672175  0.06172175  0.06327825  1
  Li  Li145  1  0.43672175  0.06172175  0.31327825  1
  Li  Li146  1  0.43672175  0.06172175  0.56327825  1
  Li  Li147  1  0.43672175  0.06172175  0.81327825  1
  Li  Li148  1  0.43672175  0.31172175  0.06327825  1
  Li  Li149  1  0.43672175  0.31172175  0.31327825  1
  Li  Li150  1  0.43672175  0.31172175  0.56327825  1
  Li  Li151  1  0.43672175  0.31172175  0.81327825  1
  Li  Li152  1  0.43672175  0.56172175  0.06327825  1
  Li  Li153  1  0.43672175  0.56172175  0.31327825  1
  Li  Li154  1  0.43672175  0.56172175  0.56327825  1
  Li  Li155  1  0.43672175  0.56172175  0.81327825  1
  Li  Li156  1  0.43672175  0.81172175  0.06327825  1
  Li  Li157  1  0.43672175  0.81172175  0.31327825  1
  Li  Li158  1  0.43672175  0.81172175  0.56327825  1
  Li  Li159  1  0.43672175  0.81172175  0.81327825  1
  Li  Li160  1  0.68672175  0.06172175  0.06327825  1
  Li  Li161  1  0.68672175  0.06172175  0.31327825  1
  Li  Li162  1  0.68672175  0.06172175  0.56327825  1
  Li  Li163  1  0.68672175  0.06172175  0.81327825  1
  Li  Li164  1  0.68672175  0.31172175  0.06327825  1
  Li  Li165  1  0.68672175  0.31172175  0.31327825  1
  Li  Li166  1  0.68672175  0.31172175  0.56327825  1
  Li  Li167  1  0.68672175  0.31172175  0.81327825  1
  Li  Li168  1  0.68672175  0.56172175  0.06327825  1
  Li  Li169  1  0.68672175  0.56172175  0.31327825  1
  Li  Li170  1  0.68672175  0.56172175  0.56327825  1
  Li  Li171  1  0.68672175  0.56172175  0.81327825  1
  Li  Li172  1  0.68672175  0.81172175  0.06327825  1
  Li  Li173  1  0.68672175  0.81172175  0.31327825  1
  Li  Li174  1  0.68672175  0.81172175  0.56327825  1
  Li  Li175  1  0.68672175  0.81172175  0.81327825  1
  Li  Li176  1  0.93672175  0.06172175  0.06327825  1
  Li  Li177  1  0.93672175  0.06172175  0.31327825  1
  Li  Li178  1  0.93672175  0.06172175  0.56327825  1
  Li  Li179  1  0.93672175  0.06172175  0.81327825  1
  Li  Li180  1  0.93672175  0.31172175  0.06327825  1
  Li  Li181  1  0.93672175  0.31172175  0.31327825  1
  Li  Li182  1  0.93672175  0.31172175  0.56327825  1
  Li  Li183  1  0.93672175  0.31172175  0.81327825  1
  Li  Li184  1  0.93672175  0.56172175  0.06327825  1
  Li  Li185  1  0.93672175  0.56172175  0.31327825  1
  Li  Li186  1  0.93672175  0.56172175  0.56327825  1
  Li  Li187  1  0.93672175  0.56172175  0.81327825  1
  Li  Li188  1  0.93672175  0.81172175  0.06327825  1
  Li  Li189  1  0.93672175  0.81172175  0.31327825  1
  Li  Li190  1  0.93672175  0.81172175  0.56327825  1
  Li  Li191  1  0.93672175  0.81172175  0.81327825  1
  Li  Li192  1  0.00077825  0.12577825  0.24922175  1
  Li  Li193  1  0.00077825  0.12577825  0.49922175  1
  Li  Li194  1  0.00077825  0.12577825  0.74922175  1
  Li  Li195  1  0.00077825  0.12577825  0.99922175  1
  Li  Li196  1  0.00077825  0.37577825  0.24922175  1
  Li  Li197  1  0.00077825  0.37577825  0.49922175  1
  Li  Li198  1  0.00077825  0.37577825  0.74922175  1
  Li  Li199  1  0.00077825  0.37577825  0.99922175  1
  Li  Li200  1  0.00077825  0.62577825  0.24922175  1
  Li  Li201  1  0.00077825  0.62577825  0.49922175  1
  Li  Li202  1  0.00077825  0.62577825  0.74922175  1
  Li  Li203  1  0.00077825  0.62577825  0.99922175  1
  Li  Li204  1  0.00077825  0.87577825  0.24922175  1
  Li  Li205  1  0.00077825  0.87577825  0.49922175  1
  Li  Li206  1  0.00077825  0.87577825  0.74922175  1
  Li  Li207  1  0.00077825  0.87577825  0.99922175  1
  Li  Li208  1  0.25077825  0.12577825  0.24922175  1
  Li  Li209  1  0.25077825  0.12577825  0.49922175  1
  Li  Li210  1  0.25077825  0.12577825  0.74922175  1
  Li  Li211  1  0.25077825  0.12577825  0.99922175  1
  Li  Li212  1  0.25077825  0.37577825  0.24922175  1
  Li  Li213  1  0.25077825  0.37577825  0.49922175  1
  Li  Li214  1  0.25077825  0.37577825  0.74922175  1
  Li  Li215  1  0.25077825  0.37577825  0.99922175  1
  Li  Li216  1  0.25077825  0.62577825  0.24922175  1
  Li  Li217  1  0.25077825  0.62577825  0.49922175  1
  Li  Li218  1  0.25077825  0.62577825  0.74922175  1
  Li  Li219  1  0.25077825  0.62577825  0.99922175  1
  Li  Li220  1  0.25077825  0.87577825  0.24922175  1
  Li  Li221  1  0.25077825  0.87577825  0.49922175  1
  Li  Li222  1  0.25077825  0.87577825  0.74922175  1
  Li  Li223  1  0.25077825  0.87577825  0.99922175  1
  Li  Li224  1  0.50077825  0.12577825  0.24922175  1
  Li  Li225  1  0.50077825  0.12577825  0.49922175  1
  Li  Li226  1  0.50077825  0.12577825  0.74922175  1
  Li  Li227  1  0.50077825  0.12577825  0.99922175  1
  Li  Li228  1  0.50077825  0.37577825  0.24922175  1
  Li  Li229  1  0.50077825  0.37577825  0.49922175  1
  Li  Li230  1  0.50077825  0.37577825  0.74922175  1
  Li  Li231  1  0.50077825  0.37577825  0.99922175  1
  Li  Li232  1  0.50077825  0.62577825  0.24922175  1
  Li  Li233  1  0.50077825  0.62577825  0.49922175  1
  Li  Li234  1  0.50077825  0.62577825  0.74922175  1
  Li  Li235  1  0.50077825  0.62577825  0.99922175  1
  Li  Li236  1  0.50077825  0.87577825  0.24922175  1
  Li  Li237  1  0.50077825  0.87577825  0.49922175  1
  Li  Li238  1  0.50077825  0.87577825  0.74922175  1
  Li  Li239  1  0.50077825  0.87577825  0.99922175  1
  Li  Li240  1  0.75077825  0.12577825  0.24922175  1
  Li  Li241  1  0.75077825  0.12577825  0.49922175  1
  Li  Li242  1  0.75077825  0.12577825  0.74922175  1
  Li  Li243  1  0.75077825  0.12577825  0.99922175  1
  Li  Li244  1  0.75077825  0.37577825  0.24922175  1
  Li  Li245  1  0.75077825  0.37577825  0.49922175  1
  Li  Li246  1  0.75077825  0.37577825  0.74922175  1
  Li  Li247  1  0.75077825  0.37577825  0.99922175  1
  Li  Li248  1  0.75077825  0.62577825  0.24922175  1
  Li  Li249  1  0.75077825  0.62577825  0.49922175  1
  Li  Li250  1  0.75077825  0.62577825  0.74922175  1
  Li  Li251  1  0.75077825  0.62577825  0.99922175  1
  Li  Li252  1  0.75077825  0.87577825  0.24922175  1
  Li  Li253  1  0.75077825  0.87577825  0.49922175  1
  Li  Li254  1  0.75077825  0.87577825  0.74922175  1
  Li  Li255  1  0.75077825  0.87577825  0.99922175  1
  Li  Li256  1  0.24922175  0.00077825  0.12577825  1
  Li  Li257  1  0.24922175  0.00077825  0.37577825  1
  Li  Li258  1  0.24922175  0.00077825  0.62577825  1
  Li  Li259  1  0.24922175  0.00077825  0.87577825  1
  Li  Li260  1  0.24922175  0.25077825  0.12577825  1
  Li  Li261  1  0.24922175  0.25077825  0.37577825  1
  Li  Li262  1  0.24922175  0.25077825  0.62577825  1
  Li  Li263  1  0.24922175  0.25077825  0.87577825  1
  Li  Li264  1  0.24922175  0.50077825  0.12577825  1
  Li  Li265  1  0.24922175  0.50077825  0.37577825  1
  Li  Li266  1  0.24922175  0.50077825  0.62577825  1
  Li  Li267  1  0.24922175  0.50077825  0.87577825  1
  Li  Li268  1  0.24922175  0.75077825  0.12577825  1
  Li  Li269  1  0.24922175  0.75077825  0.37577825  1
  Li  Li270  1  0.24922175  0.75077825  0.62577825  1
  Li  Li271  1  0.24922175  0.75077825  0.87577825  1
  Li  Li272  1  0.49922175  0.00077825  0.12577825  1
  Li  Li273  1  0.49922175  0.00077825  0.37577825  1
  Li  Li274  1  0.49922175  0.00077825  0.62577825  1
  Li  Li275  1  0.49922175  0.00077825  0.87577825  1
  Li  Li276  1  0.49922175  0.25077825  0.12577825  1
  Li  Li277  1  0.49922175  0.25077825  0.37577825  1
  Li  Li278  1  0.49922175  0.25077825  0.62577825  1
  Li  Li279  1  0.49922175  0.25077825  0.87577825  1
  Li  Li280  1  0.49922175  0.50077825  0.12577825  1
  Li  Li281  1  0.49922175  0.50077825  0.37577825  1
  Li  Li282  1  0.49922175  0.50077825  0.62577825  1
  Li  Li283  1  0.49922175  0.50077825  0.87577825  1
  Li  Li284  1  0.49922175  0.75077825  0.12577825  1
  Li  Li285  1  0.49922175  0.75077825  0.37577825  1
  Li  Li286  1  0.49922175  0.75077825  0.62577825  1
  Li  Li287  1  0.49922175  0.75077825  0.87577825  1
  Li  Li288  1  0.74922175  0.00077825  0.12577825  1
  Li  Li289  1  0.74922175  0.00077825  0.37577825  1
  Li  Li290  1  0.74922175  0.00077825  0.62577825  1
  Li  Li291  1  0.74922175  0.00077825  0.87577825  1
  Li  Li292  1  0.74922175  0.25077825  0.12577825  1
  Li  Li293  1  0.74922175  0.25077825  0.37577825  1
  Li  Li294  1  0.74922175  0.25077825  0.62577825  1
  Li  Li295  1  0.74922175  0.25077825  0.87577825  1
  Li  Li296  1  0.74922175  0.50077825  0.12577825  1
  Li  Li297  1  0.74922175  0.50077825  0.37577825  1
  Li  Li298  1  0.74922175  0.50077825  0.62577825  1
  Li  Li299  1  0.74922175  0.50077825  0.87577825  1
  Li  Li300  1  0.74922175  0.75077825  0.12577825  1
  Li  Li301  1  0.74922175  0.75077825  0.37577825  1
  Li  Li302  1  0.74922175  0.75077825  0.62577825  1
  Li  Li303  1  0.74922175  0.75077825  0.87577825  1
  Li  Li304  1  0.99922175  0.00077825  0.12577825  1
  Li  Li305  1  0.99922175  0.00077825  0.37577825  1
  Li  Li306  1  0.99922175  0.00077825  0.62577825  1
  Li  Li307  1  0.99922175  0.00077825  0.87577825  1
  Li  Li308  1  0.99922175  0.25077825  0.12577825  1
  Li  Li309  1  0.99922175  0.25077825  0.37577825  1
  Li  Li310  1  0.99922175  0.25077825  0.62577825  1
  Li  Li311  1  0.99922175  0.25077825  0.87577825  1
  Li  Li312  1  0.99922175  0.50077825  0.12577825  1
  Li  Li313  1  0.99922175  0.50077825  0.37577825  1
  Li  Li314  1  0.99922175  0.50077825  0.62577825  1
  Li  Li315  1  0.99922175  0.50077825  0.87577825  1
  Li  Li316  1  0.99922175  0.75077825  0.12577825  1
  Li  Li317  1  0.99922175  0.75077825  0.37577825  1
  Li  Li318  1  0.99922175  0.75077825  0.62577825  1
  Li  Li319  1  0.99922175  0.75077825  0.87577825  1
  Li  Li320  1  0.06327825  0.18672175  0.06172175  1
  Li  Li321  1  0.06327825  0.18672175  0.31172175  1
  Li  Li322  1  0.06327825  0.18672175  0.56172175  1
  Li  Li323  1  0.06327825  0.18672175  0.81172175  1
  Li  Li324  1  0.06327825  0.43672175  0.06172175  1
  Li  Li325  1  0.06327825  0.43672175  0.31172175  1
  Li  Li326  1  0.06327825  0.43672175  0.56172175  1
  Li  Li327  1  0.06327825  0.43672175  0.81172175  1
  Li  Li328  1  0.06327825  0.68672175  0.06172175  1
  Li  Li329  1  0.06327825  0.68672175  0.31172175  1
  Li  Li330  1  0.06327825  0.68672175  0.56172175  1
  Li  Li331  1  0.06327825  0.68672175  0.81172175  1
  Li  Li332  1  0.06327825  0.93672175  0.06172175  1
  Li  Li333  1  0.06327825  0.93672175  0.31172175  1
  Li  Li334  1  0.06327825  0.93672175  0.56172175  1
  Li  Li335  1  0.06327825  0.93672175  0.81172175  1
  Li  Li336  1  0.31327825  0.18672175  0.06172175  1
  Li  Li337  1  0.31327825  0.18672175  0.31172175  1
  Li  Li338  1  0.31327825  0.18672175  0.56172175  1
  Li  Li339  1  0.31327825  0.18672175  0.81172175  1
  Li  Li340  1  0.31327825  0.43672175  0.06172175  1
  Li  Li341  1  0.31327825  0.43672175  0.31172175  1
  Li  Li342  1  0.31327825  0.43672175  0.56172175  1
  Li  Li343  1  0.31327825  0.43672175  0.81172175  1
  Li  Li344  1  0.31327825  0.68672175  0.06172175  1
  Li  Li345  1  0.31327825  0.68672175  0.31172175  1
  Li  Li346  1  0.31327825  0.68672175  0.56172175  1
  Li  Li347  1  0.31327825  0.68672175  0.81172175  1
  Li  Li348  1  0.31327825  0.93672175  0.06172175  1
  Li  Li349  1  0.31327825  0.93672175  0.31172175  1
  Li  Li350  1  0.31327825  0.93672175  0.56172175  1
  Li  Li351  1  0.31327825  0.93672175  0.81172175  1
  Li  Li352  1  0.56327825  0.18672175  0.06172175  1
  Li  Li353  1  0.56327825  0.18672175  0.31172175  1
  Li  Li354  1  0.56327825  0.18672175  0.56172175  1
  Li  Li355  1  0.56327825  0.18672175  0.81172175  1
  Li  Li356  1  0.56327825  0.43672175  0.06172175  1
  Li  Li357  1  0.56327825  0.43672175  0.31172175  1
  Li  Li358  1  0.56327825  0.43672175  0.56172175  1
  Li  Li359  1  0.56327825  0.43672175  0.81172175  1
  Li  Li360  1  0.56327825  0.68672175  0.06172175  1
  Li  Li361  1  0.56327825  0.68672175  0.31172175  1
  Li  Li362  1  0.56327825  0.68672175  0.56172175  1
  Li  Li363  1  0.56327825  0.68672175  0.81172175  1
  Li  Li364  1  0.56327825  0.93672175  0.06172175  1
  Li  Li365  1  0.56327825  0.93672175  0.31172175  1
  Li  Li366  1  0.56327825  0.93672175  0.56172175  1
  Li  Li367  1  0.56327825  0.93672175  0.81172175  1
  Li  Li368  1  0.81327825  0.18672175  0.06172175  1
  Li  Li369  1  0.81327825  0.18672175  0.31172175  1
  Li  Li370  1  0.81327825  0.18672175  0.56172175  1
  Li  Li371  1  0.81327825  0.18672175  0.81172175  1
  Li  Li372  1  0.81327825  0.43672175  0.06172175  1
  Li  Li373  1  0.81327825  0.43672175  0.31172175  1
  Li  Li374  1  0.81327825  0.43672175  0.56172175  1
  Li  Li375  1  0.81327825  0.43672175  0.81172175  1
  Li  Li376  1  0.81327825  0.68672175  0.06172175  1
  Li  Li377  1  0.81327825  0.68672175  0.31172175  1
  Li  Li378  1  0.81327825  0.68672175  0.56172175  1
  Li  Li379  1  0.81327825  0.68672175  0.81172175  1
  Li  Li380  1  0.81327825  0.93672175  0.06172175  1
  Li  Li381  1  0.81327825  0.93672175  0.31172175  1
  Li  Li382  1  0.81327825  0.93672175  0.56172175  1
  Li  Li383  1  0.81327825  0.93672175  0.81172175  1
  Li  Li384  1  0.06172175  0.06327825  0.18672175  1
  Li  Li385  1  0.06172175  0.06327825  0.43672175  1
  Li  Li386  1  0.06172175  0.06327825  0.68672175  1
  Li  Li387  1  0.06172175  0.06327825  0.93672175  1
  Li  Li388  1  0.06172175  0.31327825  0.18672175  1
  Li  Li389  1  0.06172175  0.31327825  0.43672175  1
  Li  Li390  1  0.06172175  0.31327825  0.68672175  1
  Li  Li391  1  0.06172175  0.31327825  0.93672175  1
  Li  Li392  1  0.06172175  0.56327825  0.18672175  1
  Li  Li393  1  0.06172175  0.56327825  0.43672175  1
  Li  Li394  1  0.06172175  0.56327825  0.68672175  1
  Li  Li395  1  0.06172175  0.56327825  0.93672175  1
  Li  Li396  1  0.06172175  0.81327825  0.18672175  1
  Li  Li397  1  0.06172175  0.81327825  0.43672175  1
  Li  Li398  1  0.06172175  0.81327825  0.68672175  1
  Li  Li399  1  0.06172175  0.81327825  0.93672175  1
  Li  Li400  1  0.31172175  0.06327825  0.18672175  1
  Li  Li401  1  0.31172175  0.06327825  0.43672175  1
  Li  Li402  1  0.31172175  0.06327825  0.68672175  1
  Li  Li403  1  0.31172175  0.06327825  0.93672175  1
  Li  Li404  1  0.31172175  0.31327825  0.18672175  1
  Li  Li405  1  0.31172175  0.31327825  0.43672175  1
  Li  Li406  1  0.31172175  0.31327825  0.68672175  1
  Li  Li407  1  0.31172175  0.31327825  0.93672175  1
  Li  Li408  1  0.31172175  0.56327825  0.18672175  1
  Li  Li409  1  0.31172175  0.56327825  0.43672175  1
  Li  Li410  1  0.31172175  0.56327825  0.68672175  1
  Li  Li411  1  0.31172175  0.56327825  0.93672175  1
  Li  Li412  1  0.31172175  0.81327825  0.18672175  1
  Li  Li413  1  0.31172175  0.81327825  0.43672175  1
  Li  Li414  1  0.31172175  0.81327825  0.68672175  1
  Li  Li415  1  0.31172175  0.81327825  0.93672175  1
  Li  Li416  1  0.56172175  0.06327825  0.18672175  1
  Li  Li417  1  0.56172175  0.06327825  0.43672175  1
  Li  Li418  1  0.56172175  0.06327825  0.68672175  1
  Li  Li419  1  0.56172175  0.06327825  0.93672175  1
  Li  Li420  1  0.56172175  0.31327825  0.18672175  1
  Li  Li421  1  0.56172175  0.31327825  0.43672175  1
  Li  Li422  1  0.56172175  0.31327825  0.68672175  1
  Li  Li423  1  0.56172175  0.31327825  0.93672175  1
  Li  Li424  1  0.56172175  0.56327825  0.18672175  1
  Li  Li425  1  0.56172175  0.56327825  0.43672175  1
  Li  Li426  1  0.56172175  0.56327825  0.68672175  1
  Li  Li427  1  0.56172175  0.56327825  0.93672175  1
  Li  Li428  1  0.56172175  0.81327825  0.18672175  1
  Li  Li429  1  0.56172175  0.81327825  0.43672175  1
  Li  Li430  1  0.56172175  0.81327825  0.68672175  1
  Li  Li431  1  0.56172175  0.81327825  0.93672175  1
  Li  Li432  1  0.81172175  0.06327825  0.18672175  1
  Li  Li433  1  0.81172175  0.06327825  0.43672175  1
  Li  Li434  1  0.81172175  0.06327825  0.68672175  1
  Li  Li435  1  0.81172175  0.06327825  0.93672175  1
  Li  Li436  1  0.81172175  0.31327825  0.18672175  1
  Li  Li437  1  0.81172175  0.31327825  0.43672175  1
  Li  Li438  1  0.81172175  0.31327825  0.68672175  1
  Li  Li439  1  0.81172175  0.31327825  0.93672175  1
  Li  Li440  1  0.81172175  0.56327825  0.18672175  1
  Li  Li441  1  0.81172175  0.56327825  0.43672175  1
  Li  Li442  1  0.81172175  0.56327825  0.68672175  1
  Li  Li443  1  0.81172175  0.56327825  0.93672175  1
  Li  Li444  1  0.81172175  0.81327825  0.18672175  1
  Li  Li445  1  0.81172175  0.81327825  0.43672175  1
  Li  Li446  1  0.81172175  0.81327825  0.68672175  1
  Li  Li447  1  0.81172175  0.81327825  0.93672175  1
  Li  Li448  1  0.12577825  0.24922175  0.00077825  1
  Li  Li449  1  0.12577825  0.24922175  0.25077825  1
  Li  Li450  1  0.12577825  0.24922175  0.50077825  1
  Li  Li451  1  0.12577825  0.24922175  0.75077825  1
  Li  Li452  1  0.12577825  0.49922175  0.00077825  1
  Li  Li453  1  0.12577825  0.49922175  0.25077825  1
  Li  Li454  1  0.12577825  0.49922175  0.50077825  1
  Li  Li455  1  0.12577825  0.49922175  0.75077825  1
  Li  Li456  1  0.12577825  0.74922175  0.00077825  1
  Li  Li457  1  0.12577825  0.74922175  0.25077825  1
  Li  Li458  1  0.12577825  0.74922175  0.50077825  1
  Li  Li459  1  0.12577825  0.74922175  0.75077825  1
  Li  Li460  1  0.12577825  0.99922175  0.00077825  1
  Li  Li461  1  0.12577825  0.99922175  0.25077825  1
  Li  Li462  1  0.12577825  0.99922175  0.50077825  1
  Li  Li463  1  0.12577825  0.99922175  0.75077825  1
  Li  Li464  1  0.37577825  0.24922175  0.00077825  1
  Li  Li465  1  0.37577825  0.24922175  0.25077825  1
  Li  Li466  1  0.37577825  0.24922175  0.50077825  1
  Li  Li467  1  0.37577825  0.24922175  0.75077825  1
  Li  Li468  1  0.37577825  0.49922175  0.00077825  1
  Li  Li469  1  0.37577825  0.49922175  0.25077825  1
  Li  Li470  1  0.37577825  0.49922175  0.50077825  1
  Li  Li471  1  0.37577825  0.49922175  0.75077825  1
  Li  Li472  1  0.37577825  0.74922175  0.00077825  1
  Li  Li473  1  0.37577825  0.74922175  0.25077825  1
  Li  Li474  1  0.37577825  0.74922175  0.50077825  1
  Li  Li475  1  0.37577825  0.74922175  0.75077825  1
  Li  Li476  1  0.37577825  0.99922175  0.00077825  1
  Li  Li477  1  0.37577825  0.99922175  0.25077825  1
  Li  Li478  1  0.37577825  0.99922175  0.50077825  1
  Li  Li479  1  0.37577825  0.99922175  0.75077825  1
  Li  Li480  1  0.62577825  0.24922175  0.00077825  1
  Li  Li481  1  0.62577825  0.24922175  0.25077825  1
  Li  Li482  1  0.62577825  0.24922175  0.50077825  1
  Li  Li483  1  0.62577825  0.24922175  0.75077825  1
  Li  Li484  1  0.62577825  0.49922175  0.00077825  1
  Li  Li485  1  0.62577825  0.49922175  0.25077825  1
  Li  Li486  1  0.62577825  0.49922175  0.50077825  1
  Li  Li487  1  0.62577825  0.49922175  0.75077825  1
  Li  Li488  1  0.62577825  0.74922175  0.00077825  1
  Li  Li489  1  0.62577825  0.74922175  0.25077825  1
  Li  Li490  1  0.62577825  0.74922175  0.50077825  1
  Li  Li491  1  0.62577825  0.74922175  0.75077825  1
  Li  Li492  1  0.62577825  0.99922175  0.00077825  1
  Li  Li493  1  0.62577825  0.99922175  0.25077825  1
  Li  Li494  1  0.62577825  0.99922175  0.50077825  1
  Li  Li495  1  0.62577825  0.99922175  0.75077825  1
  Li  Li496  1  0.87577825  0.24922175  0.00077825  1
  Li  Li497  1  0.87577825  0.24922175  0.25077825  1
  Li  Li498  1  0.87577825  0.24922175  0.50077825  1
  Li  Li499  1  0.87577825  0.24922175  0.75077825  1
  Li  Li500  1  0.87577825  0.49922175  0.00077825  1
  Li  Li501  1  0.87577825  0.49922175  0.25077825  1
  Li  Li502  1  0.87577825  0.49922175  0.50077825  1
  Li  Li503  1  0.87577825  0.49922175  0.75077825  1
  Li  Li504  1  0.87577825  0.74922175  0.00077825  1
  Li  Li505  1  0.87577825  0.74922175  0.25077825  1
  Li  Li506  1  0.87577825  0.74922175  0.50077825  1
  Li  Li507  1  0.87577825  0.74922175  0.75077825  1
  Li  Li508  1  0.87577825  0.99922175  0.00077825  1
  Li  Li509  1  0.87577825  0.99922175  0.25077825  1
  Li  Li510  1  0.87577825  0.99922175  0.50077825  1
  Li  Li511  1  0.87577825  0.99922175  0.75077825  1
  Cr  Cr512  1  0.15513400  0.15736600  0.03125000  1
  Cr  Cr513  1  0.15513400  0.15736600  0.28125000  1
  Cr  Cr514  1  0.15513400  0.15736600  0.53125000  1
  Cr  Cr515  1  0.15513400  0.15736600  0.78125000  1
  Cr  Cr516  1  0.15513400  0.40736600  0.03125000  1
  Cr  Cr517  1  0.15513400  0.40736600  0.28125000  1
  Cr  Cr518  1  0.15513400  0.40736600  0.53125000  1
  Cr  Cr519  1  0.15513400  0.40736600  0.78125000  1
  Cr  Cr520  1  0.15513400  0.65736600  0.03125000  1
  Cr  Cr521  1  0.15513400  0.65736600  0.28125000  1
  Cr  Cr522  1  0.15513400  0.65736600  0.53125000  1
  Cr  Cr523  1  0.15513400  0.65736600  0.78125000  1
  Cr  Cr524  1  0.15513400  0.90736600  0.03125000  1
  Cr  Cr525  1  0.15513400  0.90736600  0.28125000  1
  Cr  Cr526  1  0.15513400  0.90736600  0.53125000  1
  Cr  Cr527  1  0.15513400  0.90736600  0.78125000  1
  Cr  Cr528  1  0.40513400  0.15736600  0.03125000  1
  Cr  Cr529  1  0.40513400  0.15736600  0.28125000  1
  Cr  Cr530  1  0.40513400  0.15736600  0.53125000  1
  Cr  Cr531  1  0.40513400  0.15736600  0.78125000  1
  Cr  Cr532  1  0.40513400  0.40736600  0.03125000  1
  Cr  Cr533  1  0.40513400  0.40736600  0.28125000  1
  Cr  Cr534  1  0.40513400  0.40736600  0.53125000  1
  Cr  Cr535  1  0.40513400  0.40736600  0.78125000  1
  Cr  Cr536  1  0.40513400  0.65736600  0.03125000  1
  Cr  Cr537  1  0.40513400  0.65736600  0.28125000  1
  Cr  Cr538  1  0.40513400  0.65736600  0.53125000  1
  Cr  Cr539  1  0.40513400  0.65736600  0.78125000  1
  Cr  Cr540  1  0.40513400  0.90736600  0.03125000  1
  Cr  Cr541  1  0.40513400  0.90736600  0.28125000  1
  Cr  Cr542  1  0.40513400  0.90736600  0.53125000  1
  Cr  Cr543  1  0.40513400  0.90736600  0.78125000  1
  Cr  Cr544  1  0.65513400  0.15736600  0.03125000  1
  Cr  Cr545  1  0.65513400  0.15736600  0.28125000  1
  Cr  Cr546  1  0.65513400  0.15736600  0.53125000  1
  Cr  Cr547  1  0.65513400  0.15736600  0.78125000  1
  Cr  Cr548  1  0.65513400  0.40736600  0.03125000  1
  Cr  Cr549  1  0.65513400  0.40736600  0.28125000  1
  Cr  Cr550  1  0.65513400  0.40736600  0.53125000  1
  Cr  Cr551  1  0.65513400  0.40736600  0.78125000  1
  Cr  Cr552  1  0.65513400  0.65736600  0.03125000  1
  Cr  Cr553  1  0.65513400  0.65736600  0.28125000  1
  Cr  Cr554  1  0.65513400  0.65736600  0.53125000  1
  Cr  Cr555  1  0.65513400  0.65736600  0.78125000  1
  Cr  Cr556  1  0.65513400  0.90736600  0.03125000  1
  Cr  Cr557  1  0.65513400  0.90736600  0.28125000  1
  Cr  Cr558  1  0.65513400  0.90736600  0.53125000  1
  Cr  Cr559  1  0.65513400  0.90736600  0.78125000  1
  Cr  Cr560  1  0.90513400  0.15736600  0.03125000  1
  Cr  Cr561  1  0.90513400  0.15736600  0.28125000  1
  Cr  Cr562  1  0.90513400  0.15736600  0.53125000  1
  Cr  Cr563  1  0.90513400  0.15736600  0.78125000  1
  Cr  Cr564  1  0.90513400  0.40736600  0.03125000  1
  Cr  Cr565  1  0.90513400  0.40736600  0.28125000  1
  Cr  Cr566  1  0.90513400  0.40736600  0.53125000  1
  Cr  Cr567  1  0.90513400  0.40736600  0.78125000  1
  Cr  Cr568  1  0.90513400  0.65736600  0.03125000  1
  Cr  Cr569  1  0.90513400  0.65736600  0.28125000  1
  Cr  Cr570  1  0.90513400  0.65736600  0.53125000  1
  Cr  Cr571  1  0.90513400  0.65736600  0.78125000  1
  Cr  Cr572  1  0.90513400  0.90736600  0.03125000  1
  Cr  Cr573  1  0.90513400  0.90736600  0.28125000  1
  Cr  Cr574  1  0.90513400  0.90736600  0.53125000  1
  Cr  Cr575  1  0.90513400  0.90736600  0.78125000  1
  Cr  Cr576  1  0.15625000  0.21986600  0.09263400  1
  Cr  Cr577  1  0.15625000  0.21986600  0.34263400  1
  Cr  Cr578  1  0.15625000  0.21986600  0.59263400  1
  Cr  Cr579  1  0.15625000  0.21986600  0.84263400  1
  Cr  Cr580  1  0.15625000  0.46986600  0.09263400  1
  Cr  Cr581  1  0.15625000  0.46986600  0.34263400  1
  Cr  Cr582  1  0.15625000  0.46986600  0.59263400  1
  Cr  Cr583  1  0.15625000  0.46986600  0.84263400  1
  Cr  Cr584  1  0.15625000  0.71986600  0.09263400  1
  Cr  Cr585  1  0.15625000  0.71986600  0.34263400  1
  Cr  Cr586  1  0.15625000  0.71986600  0.59263400  1
  Cr  Cr587  1  0.15625000  0.71986600  0.84263400  1
  Cr  Cr588  1  0.15625000  0.96986600  0.09263400  1
  Cr  Cr589  1  0.15625000  0.96986600  0.34263400  1
  Cr  Cr590  1  0.15625000  0.96986600  0.59263400  1
  Cr  Cr591  1  0.15625000  0.96986600  0.84263400  1
  Cr  Cr592  1  0.40625000  0.21986600  0.09263400  1
  Cr  Cr593  1  0.40625000  0.21986600  0.34263400  1
  Cr  Cr594  1  0.40625000  0.21986600  0.59263400  1
  Cr  Cr595  1  0.40625000  0.21986600  0.84263400  1
  Cr  Cr596  1  0.40625000  0.46986600  0.09263400  1
  Cr  Cr597  1  0.40625000  0.46986600  0.34263400  1
  Cr  Cr598  1  0.40625000  0.46986600  0.59263400  1
  Cr  Cr599  1  0.40625000  0.46986600  0.84263400  1
  Cr  Cr600  1  0.40625000  0.71986600  0.09263400  1
  Cr  Cr601  1  0.40625000  0.71986600  0.34263400  1
  Cr  Cr602  1  0.40625000  0.71986600  0.59263400  1
  Cr  Cr603  1  0.40625000  0.71986600  0.84263400  1
  Cr  Cr604  1  0.40625000  0.96986600  0.09263400  1
  Cr  Cr605  1  0.40625000  0.96986600  0.34263400  1
  Cr  Cr606  1  0.40625000  0.96986600  0.59263400  1
  Cr  Cr607  1  0.40625000  0.96986600  0.84263400  1
  Cr  Cr608  1  0.65625000  0.21986600  0.09263400  1
  Cr  Cr609  1  0.65625000  0.21986600  0.34263400  1
  Cr  Cr610  1  0.65625000  0.21986600  0.59263400  1
  Cr  Cr611  1  0.65625000  0.21986600  0.84263400  1
  Cr  Cr612  1  0.65625000  0.46986600  0.09263400  1
  Cr  Cr613  1  0.65625000  0.46986600  0.34263400  1
  Cr  Cr614  1  0.65625000  0.46986600  0.59263400  1
  Cr  Cr615  1  0.65625000  0.46986600  0.84263400  1
  Cr  Cr616  1  0.65625000  0.71986600  0.09263400  1
  Cr  Cr617  1  0.65625000  0.71986600  0.34263400  1
  Cr  Cr618  1  0.65625000  0.71986600  0.59263400  1
  Cr  Cr619  1  0.65625000  0.71986600  0.84263400  1
  Cr  Cr620  1  0.65625000  0.96986600  0.09263400  1
  Cr  Cr621  1  0.65625000  0.96986600  0.34263400  1
  Cr  Cr622  1  0.65625000  0.96986600  0.59263400  1
  Cr  Cr623  1  0.65625000  0.96986600  0.84263400  1
  Cr  Cr624  1  0.90625000  0.21986600  0.09263400  1
  Cr  Cr625  1  0.90625000  0.21986600  0.34263400  1
  Cr  Cr626  1  0.90625000  0.21986600  0.59263400  1
  Cr  Cr627  1  0.90625000  0.21986600  0.84263400  1
  Cr  Cr628  1  0.90625000  0.46986600  0.09263400  1
  Cr  Cr629  1  0.90625000  0.46986600  0.34263400  1
  Cr  Cr630  1  0.90625000  0.46986600  0.59263400  1
  Cr  Cr631  1  0.90625000  0.46986600  0.84263400  1
  Cr  Cr632  1  0.90625000  0.71986600  0.09263400  1
  Cr  Cr633  1  0.90625000  0.71986600  0.34263400  1
  Cr  Cr634  1  0.90625000  0.71986600  0.59263400  1
  Cr  Cr635  1  0.90625000  0.71986600  0.84263400  1
  Cr  Cr636  1  0.90625000  0.96986600  0.09263400  1
  Cr  Cr637  1  0.90625000  0.96986600  0.34263400  1
  Cr  Cr638  1  0.90625000  0.96986600  0.59263400  1
  Cr  Cr639  1  0.90625000  0.96986600  0.84263400  1
  Cr  Cr640  1  0.15736600  0.03125000  0.15513400  1
  Cr  Cr641  1  0.15736600  0.03125000  0.40513400  1
  Cr  Cr642  1  0.15736600  0.03125000  0.65513400  1
  Cr  Cr643  1  0.15736600  0.03125000  0.90513400  1
  Cr  Cr644  1  0.15736600  0.28125000  0.15513400  1
  Cr  Cr645  1  0.15736600  0.28125000  0.40513400  1
  Cr  Cr646  1  0.15736600  0.28125000  0.65513400  1
  Cr  Cr647  1  0.15736600  0.28125000  0.90513400  1
  Cr  Cr648  1  0.15736600  0.53125000  0.15513400  1
  Cr  Cr649  1  0.15736600  0.53125000  0.40513400  1
  Cr  Cr650  1  0.15736600  0.53125000  0.65513400  1
  Cr  Cr651  1  0.15736600  0.53125000  0.90513400  1
  Cr  Cr652  1  0.15736600  0.78125000  0.15513400  1
  Cr  Cr653  1  0.15736600  0.78125000  0.40513400  1
  Cr  Cr654  1  0.15736600  0.78125000  0.65513400  1
  Cr  Cr655  1  0.15736600  0.78125000  0.90513400  1
  Cr  Cr656  1  0.40736600  0.03125000  0.15513400  1
  Cr  Cr657  1  0.40736600  0.03125000  0.40513400  1
  Cr  Cr658  1  0.40736600  0.03125000  0.65513400  1
  Cr  Cr659  1  0.40736600  0.03125000  0.90513400  1
  Cr  Cr660  1  0.40736600  0.28125000  0.15513400  1
  Cr  Cr661  1  0.40736600  0.28125000  0.40513400  1
  Cr  Cr662  1  0.40736600  0.28125000  0.65513400  1
  Cr  Cr663  1  0.40736600  0.28125000  0.90513400  1
  Cr  Cr664  1  0.40736600  0.53125000  0.15513400  1
  Cr  Cr665  1  0.40736600  0.53125000  0.40513400  1
  Cr  Cr666  1  0.40736600  0.53125000  0.65513400  1
  Cr  Cr667  1  0.40736600  0.53125000  0.90513400  1
  Cr  Cr668  1  0.40736600  0.78125000  0.15513400  1
  Cr  Cr669  1  0.40736600  0.78125000  0.40513400  1
  Cr  Cr670  1  0.40736600  0.78125000  0.65513400  1
  Cr  Cr671  1  0.40736600  0.78125000  0.90513400  1
  Cr  Cr672  1  0.65736600  0.03125000  0.15513400  1
  Cr  Cr673  1  0.65736600  0.03125000  0.40513400  1
  Cr  Cr674  1  0.65736600  0.03125000  0.65513400  1
  Cr  Cr675  1  0.65736600  0.03125000  0.90513400  1
  Cr  Cr676  1  0.65736600  0.28125000  0.15513400  1
  Cr  Cr677  1  0.65736600  0.28125000  0.40513400  1
  Cr  Cr678  1  0.65736600  0.28125000  0.65513400  1
  Cr  Cr679  1  0.65736600  0.28125000  0.90513400  1
  Cr  Cr680  1  0.65736600  0.53125000  0.15513400  1
  Cr  Cr681  1  0.65736600  0.53125000  0.40513400  1
  Cr  Cr682  1  0.65736600  0.53125000  0.65513400  1
  Cr  Cr683  1  0.65736600  0.53125000  0.90513400  1
  Cr  Cr684  1  0.65736600  0.78125000  0.15513400  1
  Cr  Cr685  1  0.65736600  0.78125000  0.40513400  1
  Cr  Cr686  1  0.65736600  0.78125000  0.65513400  1
  Cr  Cr687  1  0.65736600  0.78125000  0.90513400  1
  Cr  Cr688  1  0.90736600  0.03125000  0.15513400  1
  Cr  Cr689  1  0.90736600  0.03125000  0.40513400  1
  Cr  Cr690  1  0.90736600  0.03125000  0.65513400  1
  Cr  Cr691  1  0.90736600  0.03125000  0.90513400  1
  Cr  Cr692  1  0.90736600  0.28125000  0.15513400  1
  Cr  Cr693  1  0.90736600  0.28125000  0.40513400  1
  Cr  Cr694  1  0.90736600  0.28125000  0.65513400  1
  Cr  Cr695  1  0.90736600  0.28125000  0.90513400  1
  Cr  Cr696  1  0.90736600  0.53125000  0.15513400  1
  Cr  Cr697  1  0.90736600  0.53125000  0.40513400  1
  Cr  Cr698  1  0.90736600  0.53125000  0.65513400  1
  Cr  Cr699  1  0.90736600  0.53125000  0.90513400  1
  Cr  Cr700  1  0.90736600  0.78125000  0.15513400  1
  Cr  Cr701  1  0.90736600  0.78125000  0.40513400  1
  Cr  Cr702  1  0.90736600  0.78125000  0.65513400  1
  Cr  Cr703  1  0.90736600  0.78125000  0.90513400  1
  Cr  Cr704  1  0.21763400  0.21875000  0.03013400  1
  Cr  Cr705  1  0.21763400  0.21875000  0.28013400  1
  Cr  Cr706  1  0.21763400  0.21875000  0.53013400  1
  Cr  Cr707  1  0.21763400  0.21875000  0.78013400  1
  Cr  Cr708  1  0.21763400  0.46875000  0.03013400  1
  Cr  Cr709  1  0.21763400  0.46875000  0.28013400  1
  Cr  Cr710  1  0.21763400  0.46875000  0.53013400  1
  Cr  Cr711  1  0.21763400  0.46875000  0.78013400  1
  Cr  Cr712  1  0.21763400  0.71875000  0.03013400  1
  Cr  Cr713  1  0.21763400  0.71875000  0.28013400  1
  Cr  Cr714  1  0.21763400  0.71875000  0.53013400  1
  Cr  Cr715  1  0.21763400  0.71875000  0.78013400  1
  Cr  Cr716  1  0.21763400  0.96875000  0.03013400  1
  Cr  Cr717  1  0.21763400  0.96875000  0.28013400  1
  Cr  Cr718  1  0.21763400  0.96875000  0.53013400  1
  Cr  Cr719  1  0.21763400  0.96875000  0.78013400  1
  Cr  Cr720  1  0.46763400  0.21875000  0.03013400  1
  Cr  Cr721  1  0.46763400  0.21875000  0.28013400  1
  Cr  Cr722  1  0.46763400  0.21875000  0.53013400  1
  Cr  Cr723  1  0.46763400  0.21875000  0.78013400  1
  Cr  Cr724  1  0.46763400  0.46875000  0.03013400  1
  Cr  Cr725  1  0.46763400  0.46875000  0.28013400  1
  Cr  Cr726  1  0.46763400  0.46875000  0.53013400  1
  Cr  Cr727  1  0.46763400  0.46875000  0.78013400  1
  Cr  Cr728  1  0.46763400  0.71875000  0.03013400  1
  Cr  Cr729  1  0.46763400  0.71875000  0.28013400  1
  Cr  Cr730  1  0.46763400  0.71875000  0.53013400  1
  Cr  Cr731  1  0.46763400  0.71875000  0.78013400  1
  Cr  Cr732  1  0.46763400  0.96875000  0.03013400  1
  Cr  Cr733  1  0.46763400  0.96875000  0.28013400  1
  Cr  Cr734  1  0.46763400  0.96875000  0.53013400  1
  Cr  Cr735  1  0.46763400  0.96875000  0.78013400  1
  Cr  Cr736  1  0.71763400  0.21875000  0.03013400  1
  Cr  Cr737  1  0.71763400  0.21875000  0.28013400  1
  Cr  Cr738  1  0.71763400  0.21875000  0.53013400  1
  Cr  Cr739  1  0.71763400  0.21875000  0.78013400  1
  Cr  Cr740  1  0.71763400  0.46875000  0.03013400  1
  Cr  Cr741  1  0.71763400  0.46875000  0.28013400  1
  Cr  Cr742  1  0.71763400  0.46875000  0.53013400  1
  Cr  Cr743  1  0.71763400  0.46875000  0.78013400  1
  Cr  Cr744  1  0.71763400  0.71875000  0.03013400  1
  Cr  Cr745  1  0.71763400  0.71875000  0.28013400  1
  Cr  Cr746  1  0.71763400  0.71875000  0.53013400  1
  Cr  Cr747  1  0.71763400  0.71875000  0.78013400  1
  Cr  Cr748  1  0.71763400  0.96875000  0.03013400  1
  Cr  Cr749  1  0.71763400  0.96875000  0.28013400  1
  Cr  Cr750  1  0.71763400  0.96875000  0.53013400  1
  Cr  Cr751  1  0.71763400  0.96875000  0.78013400  1
  Cr  Cr752  1  0.96763400  0.21875000  0.03013400  1
  Cr  Cr753  1  0.96763400  0.21875000  0.28013400  1
  Cr  Cr754  1  0.96763400  0.21875000  0.53013400  1
  Cr  Cr755  1  0.96763400  0.21875000  0.78013400  1
  Cr  Cr756  1  0.96763400  0.46875000  0.03013400  1
  Cr  Cr757  1  0.96763400  0.46875000  0.28013400  1
  Cr  Cr758  1  0.96763400  0.46875000  0.53013400  1
  Cr  Cr759  1  0.96763400  0.46875000  0.78013400  1
  Cr  Cr760  1  0.96763400  0.71875000  0.03013400  1
  Cr  Cr761  1  0.96763400  0.71875000  0.28013400  1
  Cr  Cr762  1  0.96763400  0.71875000  0.53013400  1
  Cr  Cr763  1  0.96763400  0.71875000  0.78013400  1
  Cr  Cr764  1  0.96763400  0.96875000  0.03013400  1
  Cr  Cr765  1  0.96763400  0.96875000  0.28013400  1
  Cr  Cr766  1  0.96763400  0.96875000  0.53013400  1
  Cr  Cr767  1  0.96763400  0.96875000  0.78013400  1
  Cr  Cr768  1  0.21875000  0.03013400  0.21763400  1
  Cr  Cr769  1  0.21875000  0.03013400  0.46763400  1
  Cr  Cr770  1  0.21875000  0.03013400  0.71763400  1
  Cr  Cr771  1  0.21875000  0.03013400  0.96763400  1
  Cr  Cr772  1  0.21875000  0.28013400  0.21763400  1
  Cr  Cr773  1  0.21875000  0.28013400  0.46763400  1
  Cr  Cr774  1  0.21875000  0.28013400  0.71763400  1
  Cr  Cr775  1  0.21875000  0.28013400  0.96763400  1
  Cr  Cr776  1  0.21875000  0.53013400  0.21763400  1
  Cr  Cr777  1  0.21875000  0.53013400  0.46763400  1
  Cr  Cr778  1  0.21875000  0.53013400  0.71763400  1
  Cr  Cr779  1  0.21875000  0.53013400  0.96763400  1
  Cr  Cr780  1  0.21875000  0.78013400  0.21763400  1
  Cr  Cr781  1  0.21875000  0.78013400  0.46763400  1
  Cr  Cr782  1  0.21875000  0.78013400  0.71763400  1
  Cr  Cr783  1  0.21875000  0.78013400  0.96763400  1
  Cr  Cr784  1  0.46875000  0.03013400  0.21763400  1
  Cr  Cr785  1  0.46875000  0.03013400  0.46763400  1
  Cr  Cr786  1  0.46875000  0.03013400  0.71763400  1
  Cr  Cr787  1  0.46875000  0.03013400  0.96763400  1
  Cr  Cr788  1  0.46875000  0.28013400  0.21763400  1
  Cr  Cr789  1  0.46875000  0.28013400  0.46763400  1
  Cr  Cr790  1  0.46875000  0.28013400  0.71763400  1
  Cr  Cr791  1  0.46875000  0.28013400  0.96763400  1
  Cr  Cr792  1  0.46875000  0.53013400  0.21763400  1
  Cr  Cr793  1  0.46875000  0.53013400  0.46763400  1
  Cr  Cr794  1  0.46875000  0.53013400  0.71763400  1
  Cr  Cr795  1  0.46875000  0.53013400  0.96763400  1
  Cr  Cr796  1  0.46875000  0.78013400  0.21763400  1
  Cr  Cr797  1  0.46875000  0.78013400  0.46763400  1
  Cr  Cr798  1  0.46875000  0.78013400  0.71763400  1
  Cr  Cr799  1  0.46875000  0.78013400  0.96763400  1
  Cr  Cr800  1  0.71875000  0.03013400  0.21763400  1
  Cr  Cr801  1  0.71875000  0.03013400  0.46763400  1
  Cr  Cr802  1  0.71875000  0.03013400  0.71763400  1
  Cr  Cr803  1  0.71875000  0.03013400  0.96763400  1
  Cr  Cr804  1  0.71875000  0.28013400  0.21763400  1
  Cr  Cr805  1  0.71875000  0.28013400  0.46763400  1
  Cr  Cr806  1  0.71875000  0.28013400  0.71763400  1
  Cr  Cr807  1  0.71875000  0.28013400  0.96763400  1
  Cr  Cr808  1  0.71875000  0.53013400  0.21763400  1
  Cr  Cr809  1  0.71875000  0.53013400  0.46763400  1
  Cr  Cr810  1  0.71875000  0.53013400  0.71763400  1
  Cr  Cr811  1  0.71875000  0.53013400  0.96763400  1
  Cr  Cr812  1  0.71875000  0.78013400  0.21763400  1
  Cr  Cr813  1  0.71875000  0.78013400  0.46763400  1
  Cr  Cr814  1  0.71875000  0.78013400  0.71763400  1
  Cr  Cr815  1  0.71875000  0.78013400  0.96763400  1
  Cr  Cr816  1  0.96875000  0.03013400  0.21763400  1
  Cr  Cr817  1  0.96875000  0.03013400  0.46763400  1
  Cr  Cr818  1  0.96875000  0.03013400  0.71763400  1
  Cr  Cr819  1  0.96875000  0.03013400  0.96763400  1
  Cr  Cr820  1  0.96875000  0.28013400  0.21763400  1
  Cr  Cr821  1  0.96875000  0.28013400  0.46763400  1
  Cr  Cr822  1  0.96875000  0.28013400  0.71763400  1
  Cr  Cr823  1  0.96875000  0.28013400  0.96763400  1
  Cr  Cr824  1  0.96875000  0.53013400  0.21763400  1
  Cr  Cr825  1  0.96875000  0.53013400  0.46763400  1
  Cr  Cr826  1  0.96875000  0.53013400  0.71763400  1
  Cr  Cr827  1  0.96875000  0.53013400  0.96763400  1
  Cr  Cr828  1  0.96875000  0.78013400  0.21763400  1
  Cr  Cr829  1  0.96875000  0.78013400  0.46763400  1
  Cr  Cr830  1  0.96875000  0.78013400  0.71763400  1
  Cr  Cr831  1  0.96875000  0.78013400  0.96763400  1
  Cr  Cr832  1  0.21986600  0.09263400  0.15625000  1
  Cr  Cr833  1  0.21986600  0.09263400  0.40625000  1
  Cr  Cr834  1  0.21986600  0.09263400  0.65625000  1
  Cr  Cr835  1  0.21986600  0.09263400  0.90625000  1
  Cr  Cr836  1  0.21986600  0.34263400  0.15625000  1
  Cr  Cr837  1  0.21986600  0.34263400  0.40625000  1
  Cr  Cr838  1  0.21986600  0.34263400  0.65625000  1
  Cr  Cr839  1  0.21986600  0.34263400  0.90625000  1
  Cr  Cr840  1  0.21986600  0.59263400  0.15625000  1
  Cr  Cr841  1  0.21986600  0.59263400  0.40625000  1
  Cr  Cr842  1  0.21986600  0.59263400  0.65625000  1
  Cr  Cr843  1  0.21986600  0.59263400  0.90625000  1
  Cr  Cr844  1  0.21986600  0.84263400  0.15625000  1
  Cr  Cr845  1  0.21986600  0.84263400  0.40625000  1
  Cr  Cr846  1  0.21986600  0.84263400  0.65625000  1
  Cr  Cr847  1  0.21986600  0.84263400  0.90625000  1
  Cr  Cr848  1  0.46986600  0.09263400  0.15625000  1
  Cr  Cr849  1  0.46986600  0.09263400  0.40625000  1
  Cr  Cr850  1  0.46986600  0.09263400  0.65625000  1
  Cr  Cr851  1  0.46986600  0.09263400  0.90625000  1
  Cr  Cr852  1  0.46986600  0.34263400  0.15625000  1
  Cr  Cr853  1  0.46986600  0.34263400  0.40625000  1
  Cr  Cr854  1  0.46986600  0.34263400  0.65625000  1
  Cr  Cr855  1  0.46986600  0.34263400  0.90625000  1
  Cr  Cr856  1  0.46986600  0.59263400  0.15625000  1
  Cr  Cr857  1  0.46986600  0.59263400  0.40625000  1
  Cr  Cr858  1  0.46986600  0.59263400  0.65625000  1
  Cr  Cr859  1  0.46986600  0.59263400  0.90625000  1
  Cr  Cr860  1  0.46986600  0.84263400  0.15625000  1
  Cr  Cr861  1  0.46986600  0.84263400  0.40625000  1
  Cr  Cr862  1  0.46986600  0.84263400  0.65625000  1
  Cr  Cr863  1  0.46986600  0.84263400  0.90625000  1
  Cr  Cr864  1  0.71986600  0.09263400  0.15625000  1
  Cr  Cr865  1  0.71986600  0.09263400  0.40625000  1
  Cr  Cr866  1  0.71986600  0.09263400  0.65625000  1
  Cr  Cr867  1  0.71986600  0.09263400  0.90625000  1
  Cr  Cr868  1  0.71986600  0.34263400  0.15625000  1
  Cr  Cr869  1  0.71986600  0.34263400  0.40625000  1
  Cr  Cr870  1  0.71986600  0.34263400  0.65625000  1
  Cr  Cr871  1  0.71986600  0.34263400  0.90625000  1
  Cr  Cr872  1  0.71986600  0.59263400  0.15625000  1
  Cr  Cr873  1  0.71986600  0.59263400  0.40625000  1
  Cr  Cr874  1  0.71986600  0.59263400  0.65625000  1
  Cr  Cr875  1  0.71986600  0.59263400  0.90625000  1
  Cr  Cr876  1  0.71986600  0.84263400  0.15625000  1
  Cr  Cr877  1  0.71986600  0.84263400  0.40625000  1
  Cr  Cr878  1  0.71986600  0.84263400  0.65625000  1
  Cr  Cr879  1  0.71986600  0.84263400  0.90625000  1
  Cr  Cr880  1  0.96986600  0.09263400  0.15625000  1
  Cr  Cr881  1  0.96986600  0.09263400  0.40625000  1
  Cr  Cr882  1  0.96986600  0.09263400  0.65625000  1
  Cr  Cr883  1  0.96986600  0.09263400  0.90625000  1
  Cr  Cr884  1  0.96986600  0.34263400  0.15625000  1
  Cr  Cr885  1  0.96986600  0.34263400  0.40625000  1
  Cr  Cr886  1  0.96986600  0.34263400  0.65625000  1
  Cr  Cr887  1  0.96986600  0.34263400  0.90625000  1
  Cr  Cr888  1  0.96986600  0.59263400  0.15625000  1
  Cr  Cr889  1  0.96986600  0.59263400  0.40625000  1
  Cr  Cr890  1  0.96986600  0.59263400  0.65625000  1
  Cr  Cr891  1  0.96986600  0.59263400  0.90625000  1
  Cr  Cr892  1  0.96986600  0.84263400  0.15625000  1
  Cr  Cr893  1  0.96986600  0.84263400  0.40625000  1
  Cr  Cr894  1  0.96986600  0.84263400  0.65625000  1
  Cr  Cr895  1  0.96986600  0.84263400  0.90625000  1
  Cr  Cr896  1  0.03013400  0.21763400  0.21875000  1
  Cr  Cr897  1  0.03013400  0.21763400  0.46875000  1
  Cr  Cr898  1  0.03013400  0.21763400  0.71875000  1
  Cr  Cr899  1  0.03013400  0.21763400  0.96875000  1
  Cr  Cr900  1  0.03013400  0.46763400  0.21875000  1
  Cr  Cr901  1  0.03013400  0.46763400  0.46875000  1
  Cr  Cr902  1  0.03013400  0.46763400  0.71875000  1
  Cr  Cr903  1  0.03013400  0.46763400  0.96875000  1
  Cr  Cr904  1  0.03013400  0.71763400  0.21875000  1
  Cr  Cr905  1  0.03013400  0.71763400  0.46875000  1
  Cr  Cr906  1  0.03013400  0.71763400  0.71875000  1
  Cr  Cr907  1  0.03013400  0.71763400  0.96875000  1
  Cr  Cr908  1  0.03013400  0.96763400  0.21875000  1
  Cr  Cr909  1  0.03013400  0.96763400  0.46875000  1
  Cr  Cr910  1  0.03013400  0.96763400  0.71875000  1
  Cr  Cr911  1  0.03013400  0.96763400  0.96875000  1
  Cr  Cr912  1  0.28013400  0.21763400  0.21875000  1
  Cr  Cr913  1  0.28013400  0.21763400  0.46875000  1
  Cr  Cr914  1  0.28013400  0.21763400  0.71875000  1
  Cr  Cr915  1  0.28013400  0.21763400  0.96875000  1
  Cr  Cr916  1  0.28013400  0.46763400  0.21875000  1
  Cr  Cr917  1  0.28013400  0.46763400  0.46875000  1
  Cr  Cr918  1  0.28013400  0.46763400  0.71875000  1
  Cr  Cr919  1  0.28013400  0.46763400  0.96875000  1
  Cr  Cr920  1  0.28013400  0.71763400  0.21875000  1
  Cr  Cr921  1  0.28013400  0.71763400  0.46875000  1
  Cr  Cr922  1  0.28013400  0.71763400  0.71875000  1
  Cr  Cr923  1  0.28013400  0.71763400  0.96875000  1
  Cr  Cr924  1  0.28013400  0.96763400  0.21875000  1
  Cr  Cr925  1  0.28013400  0.96763400  0.46875000  1
  Cr  Cr926  1  0.28013400  0.96763400  0.71875000  1
  Cr  Cr927  1  0.28013400  0.96763400  0.96875000  1
  Cr  Cr928  1  0.53013400  0.21763400  0.21875000  1
  Cr  Cr929  1  0.53013400  0.21763400  0.46875000  1
  Cr  Cr930  1  0.53013400  0.21763400  0.71875000  1
  Cr  Cr931  1  0.53013400  0.21763400  0.96875000  1
  Cr  Cr932  1  0.53013400  0.46763400  0.21875000  1
  Cr  Cr933  1  0.53013400  0.46763400  0.46875000  1
  Cr  Cr934  1  0.53013400  0.46763400  0.71875000  1
  Cr  Cr935  1  0.53013400  0.46763400  0.96875000  1
  Cr  Cr936  1  0.53013400  0.71763400  0.21875000  1
  Cr  Cr937  1  0.53013400  0.71763400  0.46875000  1
  Cr  Cr938  1  0.53013400  0.71763400  0.71875000  1
  Cr  Cr939  1  0.53013400  0.71763400  0.96875000  1
  Cr  Cr940  1  0.53013400  0.96763400  0.21875000  1
  Cr  Cr941  1  0.53013400  0.96763400  0.46875000  1
  Cr  Cr942  1  0.53013400  0.96763400  0.71875000  1
  Cr  Cr943  1  0.53013400  0.96763400  0.96875000  1
  Cr  Cr944  1  0.78013400  0.21763400  0.21875000  1
  Cr  Cr945  1  0.78013400  0.21763400  0.46875000  1
  Cr  Cr946  1  0.78013400  0.21763400  0.71875000  1
  Cr  Cr947  1  0.78013400  0.21763400  0.96875000  1
  Cr  Cr948  1  0.78013400  0.46763400  0.21875000  1
  Cr  Cr949  1  0.78013400  0.46763400  0.46875000  1
  Cr  Cr950  1  0.78013400  0.46763400  0.71875000  1
  Cr  Cr951  1  0.78013400  0.46763400  0.96875000  1
  Cr  Cr952  1  0.78013400  0.71763400  0.21875000  1
  Cr  Cr953  1  0.78013400  0.71763400  0.46875000  1
  Cr  Cr954  1  0.78013400  0.71763400  0.71875000  1
  Cr  Cr955  1  0.78013400  0.71763400  0.96875000  1
  Cr  Cr956  1  0.78013400  0.96763400  0.21875000  1
  Cr  Cr957  1  0.78013400  0.96763400  0.46875000  1
  Cr  Cr958  1  0.78013400  0.96763400  0.71875000  1
  Cr  Cr959  1  0.78013400  0.96763400  0.96875000  1
  Cr  Cr960  1  0.03125000  0.15513400  0.15736600  1
  Cr  Cr961  1  0.03125000  0.15513400  0.40736600  1
  Cr  Cr962  1  0.03125000  0.15513400  0.65736600  1
  Cr  Cr963  1  0.03125000  0.15513400  0.90736600  1
  Cr  Cr964  1  0.03125000  0.40513400  0.15736600  1
  Cr  Cr965  1  0.03125000  0.40513400  0.40736600  1
  Cr  Cr966  1  0.03125000  0.40513400  0.65736600  1
  Cr  Cr967  1  0.03125000  0.40513400  0.90736600  1
  Cr  Cr968  1  0.03125000  0.65513400  0.15736600  1
  Cr  Cr969  1  0.03125000  0.65513400  0.40736600  1
  Cr  Cr970  1  0.03125000  0.65513400  0.65736600  1
  Cr  Cr971  1  0.03125000  0.65513400  0.90736600  1
  Cr  Cr972  1  0.03125000  0.90513400  0.15736600  1
  Cr  Cr973  1  0.03125000  0.90513400  0.40736600  1
  Cr  Cr974  1  0.03125000  0.90513400  0.65736600  1
  Cr  Cr975  1  0.03125000  0.90513400  0.90736600  1
  Cr  Cr976  1  0.28125000  0.15513400  0.15736600  1
  Cr  Cr977  1  0.28125000  0.15513400  0.40736600  1
  Cr  Cr978  1  0.28125000  0.15513400  0.65736600  1
  Cr  Cr979  1  0.28125000  0.15513400  0.90736600  1
  Cr  Cr980  1  0.28125000  0.40513400  0.15736600  1
  Cr  Cr981  1  0.28125000  0.40513400  0.40736600  1
  Cr  Cr982  1  0.28125000  0.40513400  0.65736600  1
  Cr  Cr983  1  0.28125000  0.40513400  0.90736600  1
  Cr  Cr984  1  0.28125000  0.65513400  0.15736600  1
  Cr  Cr985  1  0.28125000  0.65513400  0.40736600  1
  Cr  Cr986  1  0.28125000  0.65513400  0.65736600  1
  Cr  Cr987  1  0.28125000  0.65513400  0.90736600  1
  Cr  Cr988  1  0.28125000  0.90513400  0.15736600  1
  Cr  Cr989  1  0.28125000  0.90513400  0.40736600  1
  Cr  Cr990  1  0.28125000  0.90513400  0.65736600  1
  Cr  Cr991  1  0.28125000  0.90513400  0.90736600  1
  Cr  Cr992  1  0.53125000  0.15513400  0.15736600  1
  Cr  Cr993  1  0.53125000  0.15513400  0.40736600  1
  Cr  Cr994  1  0.53125000  0.15513400  0.65736600  1
  Cr  Cr995  1  0.53125000  0.15513400  0.90736600  1
  Cr  Cr996  1  0.53125000  0.40513400  0.15736600  1
  Cr  Cr997  1  0.53125000  0.40513400  0.40736600  1
  Cr  Cr998  1  0.53125000  0.40513400  0.65736600  1
  Cr  Cr999  1  0.53125000  0.40513400  0.90736600  1
  Cr  Cr1000  1  0.53125000  0.65513400  0.15736600  1
  Cr  Cr1001  1  0.53125000  0.65513400  0.40736600  1
  Cr  Cr1002  1  0.53125000  0.65513400  0.65736600  1
  Cr  Cr1003  1  0.53125000  0.65513400  0.90736600  1
  Cr  Cr1004  1  0.53125000  0.90513400  0.15736600  1
  Cr  Cr1005  1  0.53125000  0.90513400  0.40736600  1
  Cr  Cr1006  1  0.53125000  0.90513400  0.65736600  1
  Cr  Cr1007  1  0.53125000  0.90513400  0.90736600  1
  Cr  Cr1008  1  0.78125000  0.15513400  0.15736600  1
  Cr  Cr1009  1  0.78125000  0.15513400  0.40736600  1
  Cr  Cr1010  1  0.78125000  0.15513400  0.65736600  1
  Cr  Cr1011  1  0.78125000  0.15513400  0.90736600  1
  Cr  Cr1012  1  0.78125000  0.40513400  0.15736600  1
  Cr  Cr1013  1  0.78125000  0.40513400  0.40736600  1
  Cr  Cr1014  1  0.78125000  0.40513400  0.65736600  1
  Cr  Cr1015  1  0.78125000  0.40513400  0.90736600  1
  Cr  Cr1016  1  0.78125000  0.65513400  0.15736600  1
  Cr  Cr1017  1  0.78125000  0.65513400  0.40736600  1
  Cr  Cr1018  1  0.78125000  0.65513400  0.65736600  1
  Cr  Cr1019  1  0.78125000  0.65513400  0.90736600  1
  Cr  Cr1020  1  0.78125000  0.90513400  0.15736600  1
  Cr  Cr1021  1  0.78125000  0.90513400  0.40736600  1
  Cr  Cr1022  1  0.78125000  0.90513400  0.65736600  1
  Cr  Cr1023  1  0.78125000  0.90513400  0.90736600  1
  Cr  Cr1024  1  0.03236600  0.09375000  0.09486600  1
  Cr  Cr1025  1  0.03236600  0.09375000  0.34486600  1
  Cr  Cr1026  1  0.03236600  0.09375000  0.59486600  1
  Cr  Cr1027  1  0.03236600  0.09375000  0.84486600  1
  Cr  Cr1028  1  0.03236600  0.34375000  0.09486600  1
  Cr  Cr1029  1  0.03236600  0.34375000  0.34486600  1
  Cr  Cr1030  1  0.03236600  0.34375000  0.59486600  1
  Cr  Cr1031  1  0.03236600  0.34375000  0.84486600  1
  Cr  Cr1032  1  0.03236600  0.59375000  0.09486600  1
  Cr  Cr1033  1  0.03236600  0.59375000  0.34486600  1
  Cr  Cr1034  1  0.03236600  0.59375000  0.59486600  1
  Cr  Cr1035  1  0.03236600  0.59375000  0.84486600  1
  Cr  Cr1036  1  0.03236600  0.84375000  0.09486600  1
  Cr  Cr1037  1  0.03236600  0.84375000  0.34486600  1
  Cr  Cr1038  1  0.03236600  0.84375000  0.59486600  1
  Cr  Cr1039  1  0.03236600  0.84375000  0.84486600  1
  Cr  Cr1040  1  0.28236600  0.09375000  0.09486600  1
  Cr  Cr1041  1  0.28236600  0.09375000  0.34486600  1
  Cr  Cr1042  1  0.28236600  0.09375000  0.59486600  1
  Cr  Cr1043  1  0.28236600  0.09375000  0.84486600  1
  Cr  Cr1044  1  0.28236600  0.34375000  0.09486600  1
  Cr  Cr1045  1  0.28236600  0.34375000  0.34486600  1
  Cr  Cr1046  1  0.28236600  0.34375000  0.59486600  1
  Cr  Cr1047  1  0.28236600  0.34375000  0.84486600  1
  Cr  Cr1048  1  0.28236600  0.59375000  0.09486600  1
  Cr  Cr1049  1  0.28236600  0.59375000  0.34486600  1
  Cr  Cr1050  1  0.28236600  0.59375000  0.59486600  1
  Cr  Cr1051  1  0.28236600  0.59375000  0.84486600  1
  Cr  Cr1052  1  0.28236600  0.84375000  0.09486600  1
  Cr  Cr1053  1  0.28236600  0.84375000  0.34486600  1
  Cr  Cr1054  1  0.28236600  0.84375000  0.59486600  1
  Cr  Cr1055  1  0.28236600  0.84375000  0.84486600  1
  Cr  Cr1056  1  0.53236600  0.09375000  0.09486600  1
  Cr  Cr1057  1  0.53236600  0.09375000  0.34486600  1
  Cr  Cr1058  1  0.53236600  0.09375000  0.59486600  1
  Cr  Cr1059  1  0.53236600  0.09375000  0.84486600  1
  Cr  Cr1060  1  0.53236600  0.34375000  0.09486600  1
  Cr  Cr1061  1  0.53236600  0.34375000  0.34486600  1
  Cr  Cr1062  1  0.53236600  0.34375000  0.59486600  1
  Cr  Cr1063  1  0.53236600  0.34375000  0.84486600  1
  Cr  Cr1064  1  0.53236600  0.59375000  0.09486600  1
  Cr  Cr1065  1  0.53236600  0.59375000  0.34486600  1
  Cr  Cr1066  1  0.53236600  0.59375000  0.59486600  1
  Cr  Cr1067  1  0.53236600  0.59375000  0.84486600  1
  Cr  Cr1068  1  0.53236600  0.84375000  0.09486600  1
  Cr  Cr1069  1  0.53236600  0.84375000  0.34486600  1
  Cr  Cr1070  1  0.53236600  0.84375000  0.59486600  1
  Cr  Cr1071  1  0.53236600  0.84375000  0.84486600  1
  Cr  Cr1072  1  0.78236600  0.09375000  0.09486600  1
  Cr  Cr1073  1  0.78236600  0.09375000  0.34486600  1
  Cr  Cr1074  1  0.78236600  0.09375000  0.59486600  1
  Cr  Cr1075  1  0.78236600  0.09375000  0.84486600  1
  Cr  Cr1076  1  0.78236600  0.34375000  0.09486600  1
  Cr  Cr1077  1  0.78236600  0.34375000  0.34486600  1
  Cr  Cr1078  1  0.78236600  0.34375000  0.59486600  1
  Cr  Cr1079  1  0.78236600  0.34375000  0.84486600  1
  Cr  Cr1080  1  0.78236600  0.59375000  0.09486600  1
  Cr  Cr1081  1  0.78236600  0.59375000  0.34486600  1
  Cr  Cr1082  1  0.78236600  0.59375000  0.59486600  1
  Cr  Cr1083  1  0.78236600  0.59375000  0.84486600  1
  Cr  Cr1084  1  0.78236600  0.84375000  0.09486600  1
  Cr  Cr1085  1  0.78236600  0.84375000  0.34486600  1
  Cr  Cr1086  1  0.78236600  0.84375000  0.59486600  1
  Cr  Cr1087  1  0.78236600  0.84375000  0.84486600  1
  Cr  Cr1088  1  0.09263400  0.15625000  0.21986600  1
  Cr  Cr1089  1  0.09263400  0.15625000  0.46986600  1
  Cr  Cr1090  1  0.09263400  0.15625000  0.71986600  1
  Cr  Cr1091  1  0.09263400  0.15625000  0.96986600  1
  Cr  Cr1092  1  0.09263400  0.40625000  0.21986600  1
  Cr  Cr1093  1  0.09263400  0.40625000  0.46986600  1
  Cr  Cr1094  1  0.09263400  0.40625000  0.71986600  1
  Cr  Cr1095  1  0.09263400  0.40625000  0.96986600  1
  Cr  Cr1096  1  0.09263400  0.65625000  0.21986600  1
  Cr  Cr1097  1  0.09263400  0.65625000  0.46986600  1
  Cr  Cr1098  1  0.09263400  0.65625000  0.71986600  1
  Cr  Cr1099  1  0.09263400  0.65625000  0.96986600  1
  Cr  Cr1100  1  0.09263400  0.90625000  0.21986600  1
  Cr  Cr1101  1  0.09263400  0.90625000  0.46986600  1
  Cr  Cr1102  1  0.09263400  0.90625000  0.71986600  1
  Cr  Cr1103  1  0.09263400  0.90625000  0.96986600  1
  Cr  Cr1104  1  0.34263400  0.15625000  0.21986600  1
  Cr  Cr1105  1  0.34263400  0.15625000  0.46986600  1
  Cr  Cr1106  1  0.34263400  0.15625000  0.71986600  1
  Cr  Cr1107  1  0.34263400  0.15625000  0.96986600  1
  Cr  Cr1108  1  0.34263400  0.40625000  0.21986600  1
  Cr  Cr1109  1  0.34263400  0.40625000  0.46986600  1
  Cr  Cr1110  1  0.34263400  0.40625000  0.71986600  1
  Cr  Cr1111  1  0.34263400  0.40625000  0.96986600  1
  Cr  Cr1112  1  0.34263400  0.65625000  0.21986600  1
  Cr  Cr1113  1  0.34263400  0.65625000  0.46986600  1
  Cr  Cr1114  1  0.34263400  0.65625000  0.71986600  1
  Cr  Cr1115  1  0.34263400  0.65625000  0.96986600  1
  Cr  Cr1116  1  0.34263400  0.90625000  0.21986600  1
  Cr  Cr1117  1  0.34263400  0.90625000  0.46986600  1
  Cr  Cr1118  1  0.34263400  0.90625000  0.71986600  1
  Cr  Cr1119  1  0.34263400  0.90625000  0.96986600  1
  Cr  Cr1120  1  0.59263400  0.15625000  0.21986600  1
  Cr  Cr1121  1  0.59263400  0.15625000  0.46986600  1
  Cr  Cr1122  1  0.59263400  0.15625000  0.71986600  1
  Cr  Cr1123  1  0.59263400  0.15625000  0.96986600  1
  Cr  Cr1124  1  0.59263400  0.40625000  0.21986600  1
  Cr  Cr1125  1  0.59263400  0.40625000  0.46986600  1
  Cr  Cr1126  1  0.59263400  0.40625000  0.71986600  1
  Cr  Cr1127  1  0.59263400  0.40625000  0.96986600  1
  Cr  Cr1128  1  0.59263400  0.65625000  0.21986600  1
  Cr  Cr1129  1  0.59263400  0.65625000  0.46986600  1
  Cr  Cr1130  1  0.59263400  0.65625000  0.71986600  1
  Cr  Cr1131  1  0.59263400  0.65625000  0.96986600  1
  Cr  Cr1132  1  0.59263400  0.90625000  0.21986600  1
  Cr  Cr1133  1  0.59263400  0.90625000  0.46986600  1
  Cr  Cr1134  1  0.59263400  0.90625000  0.71986600  1
  Cr  Cr1135  1  0.59263400  0.90625000  0.96986600  1
  Cr  Cr1136  1  0.84263400  0.15625000  0.21986600  1
  Cr  Cr1137  1  0.84263400  0.15625000  0.46986600  1
  Cr  Cr1138  1  0.84263400  0.15625000  0.71986600  1
  Cr  Cr1139  1  0.84263400  0.15625000  0.96986600  1
  Cr  Cr1140  1  0.84263400  0.40625000  0.21986600  1
  Cr  Cr1141  1  0.84263400  0.40625000  0.46986600  1
  Cr  Cr1142  1  0.84263400  0.40625000  0.71986600  1
  Cr  Cr1143  1  0.84263400  0.40625000  0.96986600  1
  Cr  Cr1144  1  0.84263400  0.65625000  0.21986600  1
  Cr  Cr1145  1  0.84263400  0.65625000  0.46986600  1
  Cr  Cr1146  1  0.84263400  0.65625000  0.71986600  1
  Cr  Cr1147  1  0.84263400  0.65625000  0.96986600  1
  Cr  Cr1148  1  0.84263400  0.90625000  0.21986600  1
  Cr  Cr1149  1  0.84263400  0.90625000  0.46986600  1
  Cr  Cr1150  1  0.84263400  0.90625000  0.71986600  1
  Cr  Cr1151  1  0.84263400  0.90625000  0.96986600  1
  Cr  Cr1152  1  0.09375000  0.09486600  0.03236600  1
  Cr  Cr1153  1  0.09375000  0.09486600  0.28236600  1
  Cr  Cr1154  1  0.09375000  0.09486600  0.53236600  1
  Cr  Cr1155  1  0.09375000  0.09486600  0.78236600  1
  Cr  Cr1156  1  0.09375000  0.34486600  0.03236600  1
  Cr  Cr1157  1  0.09375000  0.34486600  0.28236600  1
  Cr  Cr1158  1  0.09375000  0.34486600  0.53236600  1
  Cr  Cr1159  1  0.09375000  0.34486600  0.78236600  1
  Cr  Cr1160  1  0.09375000  0.59486600  0.03236600  1
  Cr  Cr1161  1  0.09375000  0.59486600  0.28236600  1
  Cr  Cr1162  1  0.09375000  0.59486600  0.53236600  1
  Cr  Cr1163  1  0.09375000  0.59486600  0.78236600  1
  Cr  Cr1164  1  0.09375000  0.84486600  0.03236600  1
  Cr  Cr1165  1  0.09375000  0.84486600  0.28236600  1
  Cr  Cr1166  1  0.09375000  0.84486600  0.53236600  1
  Cr  Cr1167  1  0.09375000  0.84486600  0.78236600  1
  Cr  Cr1168  1  0.34375000  0.09486600  0.03236600  1
  Cr  Cr1169  1  0.34375000  0.09486600  0.28236600  1
  Cr  Cr1170  1  0.34375000  0.09486600  0.53236600  1
  Cr  Cr1171  1  0.34375000  0.09486600  0.78236600  1
  Cr  Cr1172  1  0.34375000  0.34486600  0.03236600  1
  Cr  Cr1173  1  0.34375000  0.34486600  0.28236600  1
  Cr  Cr1174  1  0.34375000  0.34486600  0.53236600  1
  Cr  Cr1175  1  0.34375000  0.34486600  0.78236600  1
  Cr  Cr1176  1  0.34375000  0.59486600  0.03236600  1
  Cr  Cr1177  1  0.34375000  0.59486600  0.28236600  1
  Cr  Cr1178  1  0.34375000  0.59486600  0.53236600  1
  Cr  Cr1179  1  0.34375000  0.59486600  0.78236600  1
  Cr  Cr1180  1  0.34375000  0.84486600  0.03236600  1
  Cr  Cr1181  1  0.34375000  0.84486600  0.28236600  1
  Cr  Cr1182  1  0.34375000  0.84486600  0.53236600  1
  Cr  Cr1183  1  0.34375000  0.84486600  0.78236600  1
  Cr  Cr1184  1  0.59375000  0.09486600  0.03236600  1
  Cr  Cr1185  1  0.59375000  0.09486600  0.28236600  1
  Cr  Cr1186  1  0.59375000  0.09486600  0.53236600  1
  Cr  Cr1187  1  0.59375000  0.09486600  0.78236600  1
  Cr  Cr1188  1  0.59375000  0.34486600  0.03236600  1
  Cr  Cr1189  1  0.59375000  0.34486600  0.28236600  1
  Cr  Cr1190  1  0.59375000  0.34486600  0.53236600  1
  Cr  Cr1191  1  0.59375000  0.34486600  0.78236600  1
  Cr  Cr1192  1  0.59375000  0.59486600  0.03236600  1
  Cr  Cr1193  1  0.59375000  0.59486600  0.28236600  1
  Cr  Cr1194  1  0.59375000  0.59486600  0.53236600  1
  Cr  Cr1195  1  0.59375000  0.59486600  0.78236600  1
  Cr  Cr1196  1  0.59375000  0.84486600  0.03236600  1
  Cr  Cr1197  1  0.59375000  0.84486600  0.28236600  1
  Cr  Cr1198  1  0.59375000  0.84486600  0.53236600  1
  Cr  Cr1199  1  0.59375000  0.84486600  0.78236600  1
  Cr  Cr1200  1  0.84375000  0.09486600  0.03236600  1
  Cr  Cr1201  1  0.84375000  0.09486600  0.28236600  1
  Cr  Cr1202  1  0.84375000  0.09486600  0.53236600  1
  Cr  Cr1203  1  0.84375000  0.09486600  0.78236600  1
  Cr  Cr1204  1  0.84375000  0.34486600  0.03236600  1
  Cr  Cr1205  1  0.84375000  0.34486600  0.28236600  1
  Cr  Cr1206  1  0.84375000  0.34486600  0.53236600  1
  Cr  Cr1207  1  0.84375000  0.34486600  0.78236600  1
  Cr  Cr1208  1  0.84375000  0.59486600  0.03236600  1
  Cr  Cr1209  1  0.84375000  0.59486600  0.28236600  1
  Cr  Cr1210  1  0.84375000  0.59486600  0.53236600  1
  Cr  Cr1211  1  0.84375000  0.59486600  0.78236600  1
  Cr  Cr1212  1  0.84375000  0.84486600  0.03236600  1
  Cr  Cr1213  1  0.84375000  0.84486600  0.28236600  1
  Cr  Cr1214  1  0.84375000  0.84486600  0.53236600  1
  Cr  Cr1215  1  0.84375000  0.84486600  0.78236600  1
  Cr  Cr1216  1  0.09486600  0.03236600  0.09375000  1
  Cr  Cr1217  1  0.09486600  0.03236600  0.34375000  1
  Cr  Cr1218  1  0.09486600  0.03236600  0.59375000  1
  Cr  Cr1219  1  0.09486600  0.03236600  0.84375000  1
  Cr  Cr1220  1  0.09486600  0.28236600  0.09375000  1
  Cr  Cr1221  1  0.09486600  0.28236600  0.34375000  1
  Cr  Cr1222  1  0.09486600  0.28236600  0.59375000  1
  Cr  Cr1223  1  0.09486600  0.28236600  0.84375000  1
  Cr  Cr1224  1  0.09486600  0.53236600  0.09375000  1
  Cr  Cr1225  1  0.09486600  0.53236600  0.34375000  1
  Cr  Cr1226  1  0.09486600  0.53236600  0.59375000  1
  Cr  Cr1227  1  0.09486600  0.53236600  0.84375000  1
  Cr  Cr1228  1  0.09486600  0.78236600  0.09375000  1
  Cr  Cr1229  1  0.09486600  0.78236600  0.34375000  1
  Cr  Cr1230  1  0.09486600  0.78236600  0.59375000  1
  Cr  Cr1231  1  0.09486600  0.78236600  0.84375000  1
  Cr  Cr1232  1  0.34486600  0.03236600  0.09375000  1
  Cr  Cr1233  1  0.34486600  0.03236600  0.34375000  1
  Cr  Cr1234  1  0.34486600  0.03236600  0.59375000  1
  Cr  Cr1235  1  0.34486600  0.03236600  0.84375000  1
  Cr  Cr1236  1  0.34486600  0.28236600  0.09375000  1
  Cr  Cr1237  1  0.34486600  0.28236600  0.34375000  1
  Cr  Cr1238  1  0.34486600  0.28236600  0.59375000  1
  Cr  Cr1239  1  0.34486600  0.28236600  0.84375000  1
  Cr  Cr1240  1  0.34486600  0.53236600  0.09375000  1
  Cr  Cr1241  1  0.34486600  0.53236600  0.34375000  1
  Cr  Cr1242  1  0.34486600  0.53236600  0.59375000  1
  Cr  Cr1243  1  0.34486600  0.53236600  0.84375000  1
  Cr  Cr1244  1  0.34486600  0.78236600  0.09375000  1
  Cr  Cr1245  1  0.34486600  0.78236600  0.34375000  1
  Cr  Cr1246  1  0.34486600  0.78236600  0.59375000  1
  Cr  Cr1247  1  0.34486600  0.78236600  0.84375000  1
  Cr  Cr1248  1  0.59486600  0.03236600  0.09375000  1
  Cr  Cr1249  1  0.59486600  0.03236600  0.34375000  1
  Cr  Cr1250  1  0.59486600  0.03236600  0.59375000  1
  Cr  Cr1251  1  0.59486600  0.03236600  0.84375000  1
  Cr  Cr1252  1  0.59486600  0.28236600  0.09375000  1
  Cr  Cr1253  1  0.59486600  0.28236600  0.34375000  1
  Cr  Cr1254  1  0.59486600  0.28236600  0.59375000  1
  Cr  Cr1255  1  0.59486600  0.28236600  0.84375000  1
  Cr  Cr1256  1  0.59486600  0.53236600  0.09375000  1
  Cr  Cr1257  1  0.59486600  0.53236600  0.34375000  1
  Cr  Cr1258  1  0.59486600  0.53236600  0.59375000  1
  Cr  Cr1259  1  0.59486600  0.53236600  0.84375000  1
  Cr  Cr1260  1  0.59486600  0.78236600  0.09375000  1
  Cr  Cr1261  1  0.59486600  0.78236600  0.34375000  1
  Cr  Cr1262  1  0.59486600  0.78236600  0.59375000  1
  Cr  Cr1263  1  0.59486600  0.78236600  0.84375000  1
  Cr  Cr1264  1  0.84486600  0.03236600  0.09375000  1
  Cr  Cr1265  1  0.84486600  0.03236600  0.34375000  1
  Cr  Cr1266  1  0.84486600  0.03236600  0.59375000  1
  Cr  Cr1267  1  0.84486600  0.03236600  0.84375000  1
  Cr  Cr1268  1  0.84486600  0.28236600  0.09375000  1
  Cr  Cr1269  1  0.84486600  0.28236600  0.34375000  1
  Cr  Cr1270  1  0.84486600  0.28236600  0.59375000  1
  Cr  Cr1271  1  0.84486600  0.28236600  0.84375000  1
  Cr  Cr1272  1  0.84486600  0.53236600  0.09375000  1
  Cr  Cr1273  1  0.84486600  0.53236600  0.34375000  1
  Cr  Cr1274  1  0.84486600  0.53236600  0.59375000  1
  Cr  Cr1275  1  0.84486600  0.53236600  0.84375000  1
  Cr  Cr1276  1  0.84486600  0.78236600  0.09375000  1
  Cr  Cr1277  1  0.84486600  0.78236600  0.34375000  1
  Cr  Cr1278  1  0.84486600  0.78236600  0.59375000  1
  Cr  Cr1279  1  0.84486600  0.78236600  0.84375000  1
  Sb  Sb1280  1  0.15625000  0.09375000  0.21875000  1
  Sb  Sb1281  1  0.15625000  0.09375000  0.46875000  1
  Sb  Sb1282  1  0.15625000  0.09375000  0.71875000  1
  Sb  Sb1283  1  0.15625000  0.09375000  0.96875000  1
  Sb  Sb1284  1  0.15625000  0.34375000  0.21875000  1
  Sb  Sb1285  1  0.15625000  0.34375000  0.46875000  1
  Sb  Sb1286  1  0.15625000  0.34375000  0.71875000  1
  Sb  Sb1287  1  0.15625000  0.34375000  0.96875000  1
  Sb  Sb1288  1  0.15625000  0.59375000  0.21875000  1
  Sb  Sb1289  1  0.15625000  0.59375000  0.46875000  1
  Sb  Sb1290  1  0.15625000  0.59375000  0.71875000  1
  Sb  Sb1291  1  0.15625000  0.59375000  0.96875000  1
  Sb  Sb1292  1  0.15625000  0.84375000  0.21875000  1
  Sb  Sb1293  1  0.15625000  0.84375000  0.46875000  1
  Sb  Sb1294  1  0.15625000  0.84375000  0.71875000  1
  Sb  Sb1295  1  0.15625000  0.84375000  0.96875000  1
  Sb  Sb1296  1  0.40625000  0.09375000  0.21875000  1
  Sb  Sb1297  1  0.40625000  0.09375000  0.46875000  1
  Sb  Sb1298  1  0.40625000  0.09375000  0.71875000  1
  Sb  Sb1299  1  0.40625000  0.09375000  0.96875000  1
  Sb  Sb1300  1  0.40625000  0.34375000  0.21875000  1
  Sb  Sb1301  1  0.40625000  0.34375000  0.46875000  1
  Sb  Sb1302  1  0.40625000  0.34375000  0.71875000  1
  Sb  Sb1303  1  0.40625000  0.34375000  0.96875000  1
  Sb  Sb1304  1  0.40625000  0.59375000  0.21875000  1
  Sb  Sb1305  1  0.40625000  0.59375000  0.46875000  1
  Sb  Sb1306  1  0.40625000  0.59375000  0.71875000  1
  Sb  Sb1307  1  0.40625000  0.59375000  0.96875000  1
  Sb  Sb1308  1  0.40625000  0.84375000  0.21875000  1
  Sb  Sb1309  1  0.40625000  0.84375000  0.46875000  1
  Sb  Sb1310  1  0.40625000  0.84375000  0.71875000  1
  Sb  Sb1311  1  0.40625000  0.84375000  0.96875000  1
  Sb  Sb1312  1  0.65625000  0.09375000  0.21875000  1
  Sb  Sb1313  1  0.65625000  0.09375000  0.46875000  1
  Sb  Sb1314  1  0.65625000  0.09375000  0.71875000  1
  Sb  Sb1315  1  0.65625000  0.09375000  0.96875000  1
  Sb  Sb1316  1  0.65625000  0.34375000  0.21875000  1
  Sb  Sb1317  1  0.65625000  0.34375000  0.46875000  1
  Sb  Sb1318  1  0.65625000  0.34375000  0.71875000  1
  Sb  Sb1319  1  0.65625000  0.34375000  0.96875000  1
  Sb  Sb1320  1  0.65625000  0.59375000  0.21875000  1
  Sb  Sb1321  1  0.65625000  0.59375000  0.46875000  1
  Sb  Sb1322  1  0.65625000  0.59375000  0.71875000  1
  Sb  Sb1323  1  0.65625000  0.59375000  0.96875000  1
  Sb  Sb1324  1  0.65625000  0.84375000  0.21875000  1
  Sb  Sb1325  1  0.65625000  0.84375000  0.46875000  1
  Sb  Sb1326  1  0.65625000  0.84375000  0.71875000  1
  Sb  Sb1327  1  0.65625000  0.84375000  0.96875000  1
  Sb  Sb1328  1  0.90625000  0.09375000  0.21875000  1
  Sb  Sb1329  1  0.90625000  0.09375000  0.46875000  1
  Sb  Sb1330  1  0.90625000  0.09375000  0.71875000  1
  Sb  Sb1331  1  0.90625000  0.09375000  0.96875000  1
  Sb  Sb1332  1  0.90625000  0.34375000  0.21875000  1
  Sb  Sb1333  1  0.90625000  0.34375000  0.46875000  1
  Sb  Sb1334  1  0.90625000  0.34375000  0.71875000  1
  Sb  Sb1335  1  0.90625000  0.34375000  0.96875000  1
  Sb  Sb1336  1  0.90625000  0.59375000  0.21875000  1
  Sb  Sb1337  1  0.90625000  0.59375000  0.46875000  1
  Sb  Sb1338  1  0.90625000  0.59375000  0.71875000  1
  Sb  Sb1339  1  0.90625000  0.59375000  0.96875000  1
  Sb  Sb1340  1  0.90625000  0.84375000  0.21875000  1
  Sb  Sb1341  1  0.90625000  0.84375000  0.46875000  1
  Sb  Sb1342  1  0.90625000  0.84375000  0.71875000  1
  Sb  Sb1343  1  0.90625000  0.84375000  0.96875000  1
  Sb  Sb1344  1  0.21875000  0.15625000  0.09375000  1
  Sb  Sb1345  1  0.21875000  0.15625000  0.34375000  1
  Sb  Sb1346  1  0.21875000  0.15625000  0.59375000  1
  Sb  Sb1347  1  0.21875000  0.15625000  0.84375000  1
  Sb  Sb1348  1  0.21875000  0.40625000  0.09375000  1
  Sb  Sb1349  1  0.21875000  0.40625000  0.34375000  1
  Sb  Sb1350  1  0.21875000  0.40625000  0.59375000  1
  Sb  Sb1351  1  0.21875000  0.40625000  0.84375000  1
  Sb  Sb1352  1  0.21875000  0.65625000  0.09375000  1
  Sb  Sb1353  1  0.21875000  0.65625000  0.34375000  1
  Sb  Sb1354  1  0.21875000  0.65625000  0.59375000  1
  Sb  Sb1355  1  0.21875000  0.65625000  0.84375000  1
  Sb  Sb1356  1  0.21875000  0.90625000  0.09375000  1
  Sb  Sb1357  1  0.21875000  0.90625000  0.34375000  1
  Sb  Sb1358  1  0.21875000  0.90625000  0.59375000  1
  Sb  Sb1359  1  0.21875000  0.90625000  0.84375000  1
  Sb  Sb1360  1  0.46875000  0.15625000  0.09375000  1
  Sb  Sb1361  1  0.46875000  0.15625000  0.34375000  1
  Sb  Sb1362  1  0.46875000  0.15625000  0.59375000  1
  Sb  Sb1363  1  0.46875000  0.15625000  0.84375000  1
  Sb  Sb1364  1  0.46875000  0.40625000  0.09375000  1
  Sb  Sb1365  1  0.46875000  0.40625000  0.34375000  1
  Sb  Sb1366  1  0.46875000  0.40625000  0.59375000  1
  Sb  Sb1367  1  0.46875000  0.40625000  0.84375000  1
  Sb  Sb1368  1  0.46875000  0.65625000  0.09375000  1
  Sb  Sb1369  1  0.46875000  0.65625000  0.34375000  1
  Sb  Sb1370  1  0.46875000  0.65625000  0.59375000  1
  Sb  Sb1371  1  0.46875000  0.65625000  0.84375000  1
  Sb  Sb1372  1  0.46875000  0.90625000  0.09375000  1
  Sb  Sb1373  1  0.46875000  0.90625000  0.34375000  1
  Sb  Sb1374  1  0.46875000  0.90625000  0.59375000  1
  Sb  Sb1375  1  0.46875000  0.90625000  0.84375000  1
  Sb  Sb1376  1  0.71875000  0.15625000  0.09375000  1
  Sb  Sb1377  1  0.71875000  0.15625000  0.34375000  1
  Sb  Sb1378  1  0.71875000  0.15625000  0.59375000  1
  Sb  Sb1379  1  0.71875000  0.15625000  0.84375000  1
  Sb  Sb1380  1  0.71875000  0.40625000  0.09375000  1
  Sb  Sb1381  1  0.71875000  0.40625000  0.34375000  1
  Sb  Sb1382  1  0.71875000  0.40625000  0.59375000  1
  Sb  Sb1383  1  0.71875000  0.40625000  0.84375000  1
  Sb  Sb1384  1  0.71875000  0.65625000  0.09375000  1
  Sb  Sb1385  1  0.71875000  0.65625000  0.34375000  1
  Sb  Sb1386  1  0.71875000  0.65625000  0.59375000  1
  Sb  Sb1387  1  0.71875000  0.65625000  0.84375000  1
  Sb  Sb1388  1  0.71875000  0.90625000  0.09375000  1
  Sb  Sb1389  1  0.71875000  0.90625000  0.34375000  1
  Sb  Sb1390  1  0.71875000  0.90625000  0.59375000  1
  Sb  Sb1391  1  0.71875000  0.90625000  0.84375000  1
  Sb  Sb1392  1  0.96875000  0.15625000  0.09375000  1
  Sb  Sb1393  1  0.96875000  0.15625000  0.34375000  1
  Sb  Sb1394  1  0.96875000  0.15625000  0.59375000  1
  Sb  Sb1395  1  0.96875000  0.15625000  0.84375000  1
  Sb  Sb1396  1  0.96875000  0.40625000  0.09375000  1
  Sb  Sb1397  1  0.96875000  0.40625000  0.34375000  1
  Sb  Sb1398  1  0.96875000  0.40625000  0.59375000  1
  Sb  Sb1399  1  0.96875000  0.40625000  0.84375000  1
  Sb  Sb1400  1  0.96875000  0.65625000  0.09375000  1
  Sb  Sb1401  1  0.96875000  0.65625000  0.34375000  1
  Sb  Sb1402  1  0.96875000  0.65625000  0.59375000  1
  Sb  Sb1403  1  0.96875000  0.65625000  0.84375000  1
  Sb  Sb1404  1  0.96875000  0.90625000  0.09375000  1
  Sb  Sb1405  1  0.96875000  0.90625000  0.34375000  1
  Sb  Sb1406  1  0.96875000  0.90625000  0.59375000  1
  Sb  Sb1407  1  0.96875000  0.90625000  0.84375000  1
  Sb  Sb1408  1  0.03125000  0.03125000  0.03125000  1
  Sb  Sb1409  1  0.03125000  0.03125000  0.28125000  1
  Sb  Sb1410  1  0.03125000  0.03125000  0.53125000  1
  Sb  Sb1411  1  0.03125000  0.03125000  0.78125000  1
  Sb  Sb1412  1  0.03125000  0.28125000  0.03125000  1
  Sb  Sb1413  1  0.03125000  0.28125000  0.28125000  1
  Sb  Sb1414  1  0.03125000  0.28125000  0.53125000  1
  Sb  Sb1415  1  0.03125000  0.28125000  0.78125000  1
  Sb  Sb1416  1  0.03125000  0.53125000  0.03125000  1
  Sb  Sb1417  1  0.03125000  0.53125000  0.28125000  1
  Sb  Sb1418  1  0.03125000  0.53125000  0.53125000  1
  Sb  Sb1419  1  0.03125000  0.53125000  0.78125000  1
  Sb  Sb1420  1  0.03125000  0.78125000  0.03125000  1
  Sb  Sb1421  1  0.03125000  0.78125000  0.28125000  1
  Sb  Sb1422  1  0.03125000  0.78125000  0.53125000  1
  Sb  Sb1423  1  0.03125000  0.78125000  0.78125000  1
  Sb  Sb1424  1  0.28125000  0.03125000  0.03125000  1
  Sb  Sb1425  1  0.28125000  0.03125000  0.28125000  1
  Sb  Sb1426  1  0.28125000  0.03125000  0.53125000  1
  Sb  Sb1427  1  0.28125000  0.03125000  0.78125000  1
  Sb  Sb1428  1  0.28125000  0.28125000  0.03125000  1
  Sb  Sb1429  1  0.28125000  0.28125000  0.28125000  1
  Sb  Sb1430  1  0.28125000  0.28125000  0.53125000  1
  Sb  Sb1431  1  0.28125000  0.28125000  0.78125000  1
  Sb  Sb1432  1  0.28125000  0.53125000  0.03125000  1
  Sb  Sb1433  1  0.28125000  0.53125000  0.28125000  1
  Sb  Sb1434  1  0.28125000  0.53125000  0.53125000  1
  Sb  Sb1435  1  0.28125000  0.53125000  0.78125000  1
  Sb  Sb1436  1  0.28125000  0.78125000  0.03125000  1
  Sb  Sb1437  1  0.28125000  0.78125000  0.28125000  1
  Sb  Sb1438  1  0.28125000  0.78125000  0.53125000  1
  Sb  Sb1439  1  0.28125000  0.78125000  0.78125000  1
  Sb  Sb1440  1  0.53125000  0.03125000  0.03125000  1
  Sb  Sb1441  1  0.53125000  0.03125000  0.28125000  1
  Sb  Sb1442  1  0.53125000  0.03125000  0.53125000  1
  Sb  Sb1443  1  0.53125000  0.03125000  0.78125000  1
  Sb  Sb1444  1  0.53125000  0.28125000  0.03125000  1
  Sb  Sb1445  1  0.53125000  0.28125000  0.28125000  1
  Sb  Sb1446  1  0.53125000  0.28125000  0.53125000  1
  Sb  Sb1447  1  0.53125000  0.28125000  0.78125000  1
  Sb  Sb1448  1  0.53125000  0.53125000  0.03125000  1
  Sb  Sb1449  1  0.53125000  0.53125000  0.28125000  1
  Sb  Sb1450  1  0.53125000  0.53125000  0.53125000  1
  Sb  Sb1451  1  0.53125000  0.53125000  0.78125000  1
  Sb  Sb1452  1  0.53125000  0.78125000  0.03125000  1
  Sb  Sb1453  1  0.53125000  0.78125000  0.28125000  1
  Sb  Sb1454  1  0.53125000  0.78125000  0.53125000  1
  Sb  Sb1455  1  0.53125000  0.78125000  0.78125000  1
  Sb  Sb1456  1  0.78125000  0.03125000  0.03125000  1
  Sb  Sb1457  1  0.78125000  0.03125000  0.28125000  1
  Sb  Sb1458  1  0.78125000  0.03125000  0.53125000  1
  Sb  Sb1459  1  0.78125000  0.03125000  0.78125000  1
  Sb  Sb1460  1  0.78125000  0.28125000  0.03125000  1
  Sb  Sb1461  1  0.78125000  0.28125000  0.28125000  1
  Sb  Sb1462  1  0.78125000  0.28125000  0.53125000  1
  Sb  Sb1463  1  0.78125000  0.28125000  0.78125000  1
  Sb  Sb1464  1  0.78125000  0.53125000  0.03125000  1
  Sb  Sb1465  1  0.78125000  0.53125000  0.28125000  1
  Sb  Sb1466  1  0.78125000  0.53125000  0.53125000  1
  Sb  Sb1467  1  0.78125000  0.53125000  0.78125000  1
  Sb  Sb1468  1  0.78125000  0.78125000  0.03125000  1
  Sb  Sb1469  1  0.78125000  0.78125000  0.28125000  1
  Sb  Sb1470  1  0.78125000  0.78125000  0.53125000  1
  Sb  Sb1471  1  0.78125000  0.78125000  0.78125000  1
  Sb  Sb1472  1  0.09375000  0.21875000  0.15625000  1
  Sb  Sb1473  1  0.09375000  0.21875000  0.40625000  1
  Sb  Sb1474  1  0.09375000  0.21875000  0.65625000  1
  Sb  Sb1475  1  0.09375000  0.21875000  0.90625000  1
  Sb  Sb1476  1  0.09375000  0.46875000  0.15625000  1
  Sb  Sb1477  1  0.09375000  0.46875000  0.40625000  1
  Sb  Sb1478  1  0.09375000  0.46875000  0.65625000  1
  Sb  Sb1479  1  0.09375000  0.46875000  0.90625000  1
  Sb  Sb1480  1  0.09375000  0.71875000  0.15625000  1
  Sb  Sb1481  1  0.09375000  0.71875000  0.40625000  1
  Sb  Sb1482  1  0.09375000  0.71875000  0.65625000  1
  Sb  Sb1483  1  0.09375000  0.71875000  0.90625000  1
  Sb  Sb1484  1  0.09375000  0.96875000  0.15625000  1
  Sb  Sb1485  1  0.09375000  0.96875000  0.40625000  1
  Sb  Sb1486  1  0.09375000  0.96875000  0.65625000  1
  Sb  Sb1487  1  0.09375000  0.96875000  0.90625000  1
  Sb  Sb1488  1  0.34375000  0.21875000  0.15625000  1
  Sb  Sb1489  1  0.34375000  0.21875000  0.40625000  1
  Sb  Sb1490  1  0.34375000  0.21875000  0.65625000  1
  Sb  Sb1491  1  0.34375000  0.21875000  0.90625000  1
  Sb  Sb1492  1  0.34375000  0.46875000  0.15625000  1
  Sb  Sb1493  1  0.34375000  0.46875000  0.40625000  1
  Sb  Sb1494  1  0.34375000  0.46875000  0.65625000  1
  Sb  Sb1495  1  0.34375000  0.46875000  0.90625000  1
  Sb  Sb1496  1  0.34375000  0.71875000  0.15625000  1
  Sb  Sb1497  1  0.34375000  0.71875000  0.40625000  1
  Sb  Sb1498  1  0.34375000  0.71875000  0.65625000  1
  Sb  Sb1499  1  0.34375000  0.71875000  0.90625000  1
  Sb  Sb1500  1  0.34375000  0.96875000  0.15625000  1
  Sb  Sb1501  1  0.34375000  0.96875000  0.40625000  1
  Sb  Sb1502  1  0.34375000  0.96875000  0.65625000  1
  Sb  Sb1503  1  0.34375000  0.96875000  0.90625000  1
  Sb  Sb1504  1  0.59375000  0.21875000  0.15625000  1
  Sb  Sb1505  1  0.59375000  0.21875000  0.40625000  1
  Sb  Sb1506  1  0.59375000  0.21875000  0.65625000  1
  Sb  Sb1507  1  0.59375000  0.21875000  0.90625000  1
  Sb  Sb1508  1  0.59375000  0.46875000  0.15625000  1
  Sb  Sb1509  1  0.59375000  0.46875000  0.40625000  1
  Sb  Sb1510  1  0.59375000  0.46875000  0.65625000  1
  Sb  Sb1511  1  0.59375000  0.46875000  0.90625000  1
  Sb  Sb1512  1  0.59375000  0.71875000  0.15625000  1
  Sb  Sb1513  1  0.59375000  0.71875000  0.40625000  1
  Sb  Sb1514  1  0.59375000  0.71875000  0.65625000  1
  Sb  Sb1515  1  0.59375000  0.71875000  0.90625000  1
  Sb  Sb1516  1  0.59375000  0.96875000  0.15625000  1
  Sb  Sb1517  1  0.59375000  0.96875000  0.40625000  1
  Sb  Sb1518  1  0.59375000  0.96875000  0.65625000  1
  Sb  Sb1519  1  0.59375000  0.96875000  0.90625000  1
  Sb  Sb1520  1  0.84375000  0.21875000  0.15625000  1
  Sb  Sb1521  1  0.84375000  0.21875000  0.40625000  1
  Sb  Sb1522  1  0.84375000  0.21875000  0.65625000  1
  Sb  Sb1523  1  0.84375000  0.21875000  0.90625000  1
  Sb  Sb1524  1  0.84375000  0.46875000  0.15625000  1
  Sb  Sb1525  1  0.84375000  0.46875000  0.40625000  1
  Sb  Sb1526  1  0.84375000  0.46875000  0.65625000  1
  Sb  Sb1527  1  0.84375000  0.46875000  0.90625000  1
  Sb  Sb1528  1  0.84375000  0.71875000  0.15625000  1
  Sb  Sb1529  1  0.84375000  0.71875000  0.40625000  1
  Sb  Sb1530  1  0.84375000  0.71875000  0.65625000  1
  Sb  Sb1531  1  0.84375000  0.71875000  0.90625000  1
  Sb  Sb1532  1  0.84375000  0.96875000  0.15625000  1
  Sb  Sb1533  1  0.84375000  0.96875000  0.40625000  1
  Sb  Sb1534  1  0.84375000  0.96875000  0.65625000  1
  Sb  Sb1535  1  0.84375000  0.96875000  0.90625000  1
  O  O1536  1  0.15314550  0.15288700  0.22163475  1
  O  O1537  1  0.15314550  0.15288700  0.47163475  1
  O  O1538  1  0.15314550  0.15288700  0.72163475  1
  O  O1539  1  0.15314550  0.15288700  0.97163475  1
  O  O1540  1  0.15314550  0.40288700  0.22163475  1
  O  O1541  1  0.15314550  0.40288700  0.47163475  1
  O  O1542  1  0.15314550  0.40288700  0.72163475  1
  O  O1543  1  0.15314550  0.40288700  0.97163475  1
  O  O1544  1  0.15314550  0.65288700  0.22163475  1
  O  O1545  1  0.15314550  0.65288700  0.47163475  1
  O  O1546  1  0.15314550  0.65288700  0.72163475  1
  O  O1547  1  0.15314550  0.65288700  0.97163475  1
  O  O1548  1  0.15314550  0.90288700  0.22163475  1
  O  O1549  1  0.15314550  0.90288700  0.47163475  1
  O  O1550  1  0.15314550  0.90288700  0.72163475  1
  O  O1551  1  0.15314550  0.90288700  0.97163475  1
  O  O1552  1  0.40314550  0.15288700  0.22163475  1
  O  O1553  1  0.40314550  0.15288700  0.47163475  1
  O  O1554  1  0.40314550  0.15288700  0.72163475  1
  O  O1555  1  0.40314550  0.15288700  0.97163475  1
  O  O1556  1  0.40314550  0.40288700  0.22163475  1
  O  O1557  1  0.40314550  0.40288700  0.47163475  1
  O  O1558  1  0.40314550  0.40288700  0.72163475  1
  O  O1559  1  0.40314550  0.40288700  0.97163475  1
  O  O1560  1  0.40314550  0.65288700  0.22163475  1
  O  O1561  1  0.40314550  0.65288700  0.47163475  1
  O  O1562  1  0.40314550  0.65288700  0.72163475  1
  O  O1563  1  0.40314550  0.65288700  0.97163475  1
  O  O1564  1  0.40314550  0.90288700  0.22163475  1
  O  O1565  1  0.40314550  0.90288700  0.47163475  1
  O  O1566  1  0.40314550  0.90288700  0.72163475  1
  O  O1567  1  0.40314550  0.90288700  0.97163475  1
  O  O1568  1  0.65314550  0.15288700  0.22163475  1
  O  O1569  1  0.65314550  0.15288700  0.47163475  1
  O  O1570  1  0.65314550  0.15288700  0.72163475  1
  O  O1571  1  0.65314550  0.15288700  0.97163475  1
  O  O1572  1  0.65314550  0.40288700  0.22163475  1
  O  O1573  1  0.65314550  0.40288700  0.47163475  1
  O  O1574  1  0.65314550  0.40288700  0.72163475  1
  O  O1575  1  0.65314550  0.40288700  0.97163475  1
  O  O1576  1  0.65314550  0.65288700  0.22163475  1
  O  O1577  1  0.65314550  0.65288700  0.47163475  1
  O  O1578  1  0.65314550  0.65288700  0.72163475  1
  O  O1579  1  0.65314550  0.65288700  0.97163475  1
  O  O1580  1  0.65314550  0.90288700  0.22163475  1
  O  O1581  1  0.65314550  0.90288700  0.47163475  1
  O  O1582  1  0.65314550  0.90288700  0.72163475  1
  O  O1583  1  0.65314550  0.90288700  0.97163475  1
  O  O1584  1  0.90314550  0.15288700  0.22163475  1
  O  O1585  1  0.90314550  0.15288700  0.47163475  1
  O  O1586  1  0.90314550  0.15288700  0.72163475  1
  O  O1587  1  0.90314550  0.15288700  0.97163475  1
  O  O1588  1  0.90314550  0.40288700  0.22163475  1
  O  O1589  1  0.90314550  0.40288700  0.47163475  1
  O  O1590  1  0.90314550  0.40288700  0.72163475  1
  O  O1591  1  0.90314550  0.40288700  0.97163475  1
  O  O1592  1  0.90314550  0.65288700  0.22163475  1
  O  O1593  1  0.90314550  0.65288700  0.47163475  1
  O  O1594  1  0.90314550  0.65288700  0.72163475  1
  O  O1595  1  0.90314550  0.65288700  0.97163475  1
  O  O1596  1  0.90314550  0.90288700  0.22163475  1
  O  O1597  1  0.90314550  0.90288700  0.47163475  1
  O  O1598  1  0.90314550  0.90288700  0.72163475  1
  O  O1599  1  0.90314550  0.90288700  0.97163475  1
  O  O1600  1  0.15336525  0.09685450  0.02788700  1
  O  O1601  1  0.15336525  0.09685450  0.27788700  1
  O  O1602  1  0.15336525  0.09685450  0.52788700  1
  O  O1603  1  0.15336525  0.09685450  0.77788700  1
  O  O1604  1  0.15336525  0.34685450  0.02788700  1
  O  O1605  1  0.15336525  0.34685450  0.27788700  1
  O  O1606  1  0.15336525  0.34685450  0.52788700  1
  O  O1607  1  0.15336525  0.34685450  0.77788700  1
  O  O1608  1  0.15336525  0.59685450  0.02788700  1
  O  O1609  1  0.15336525  0.59685450  0.27788700  1
  O  O1610  1  0.15336525  0.59685450  0.52788700  1
  O  O1611  1  0.15336525  0.59685450  0.77788700  1
  O  O1612  1  0.15336525  0.84685450  0.02788700  1
  O  O1613  1  0.15336525  0.84685450  0.27788700  1
  O  O1614  1  0.15336525  0.84685450  0.52788700  1
  O  O1615  1  0.15336525  0.84685450  0.77788700  1
  O  O1616  1  0.40336525  0.09685450  0.02788700  1
  O  O1617  1  0.40336525  0.09685450  0.27788700  1
  O  O1618  1  0.40336525  0.09685450  0.52788700  1
  O  O1619  1  0.40336525  0.09685450  0.77788700  1
  O  O1620  1  0.40336525  0.34685450  0.02788700  1
  O  O1621  1  0.40336525  0.34685450  0.27788700  1
  O  O1622  1  0.40336525  0.34685450  0.52788700  1
  O  O1623  1  0.40336525  0.34685450  0.77788700  1
  O  O1624  1  0.40336525  0.59685450  0.02788700  1
  O  O1625  1  0.40336525  0.59685450  0.27788700  1
  O  O1626  1  0.40336525  0.59685450  0.52788700  1
  O  O1627  1  0.40336525  0.59685450  0.77788700  1
  O  O1628  1  0.40336525  0.84685450  0.02788700  1
  O  O1629  1  0.40336525  0.84685450  0.27788700  1
  O  O1630  1  0.40336525  0.84685450  0.52788700  1
  O  O1631  1  0.40336525  0.84685450  0.77788700  1
  O  O1632  1  0.65336525  0.09685450  0.02788700  1
  O  O1633  1  0.65336525  0.09685450  0.27788700  1
  O  O1634  1  0.65336525  0.09685450  0.52788700  1
  O  O1635  1  0.65336525  0.09685450  0.77788700  1
  O  O1636  1  0.65336525  0.34685450  0.02788700  1
  O  O1637  1  0.65336525  0.34685450  0.27788700  1
  O  O1638  1  0.65336525  0.34685450  0.52788700  1
  O  O1639  1  0.65336525  0.34685450  0.77788700  1
  O  O1640  1  0.65336525  0.59685450  0.02788700  1
  O  O1641  1  0.65336525  0.59685450  0.27788700  1
  O  O1642  1  0.65336525  0.59685450  0.52788700  1
  O  O1643  1  0.65336525  0.59685450  0.77788700  1
  O  O1644  1  0.65336525  0.84685450  0.02788700  1
  O  O1645  1  0.65336525  0.84685450  0.27788700  1
  O  O1646  1  0.65336525  0.84685450  0.52788700  1
  O  O1647  1  0.65336525  0.84685450  0.77788700  1
  O  O1648  1  0.90336525  0.09685450  0.02788700  1
  O  O1649  1  0.90336525  0.09685450  0.27788700  1
  O  O1650  1  0.90336525  0.09685450  0.52788700  1
  O  O1651  1  0.90336525  0.09685450  0.77788700  1
  O  O1652  1  0.90336525  0.34685450  0.02788700  1
  O  O1653  1  0.90336525  0.34685450  0.27788700  1
  O  O1654  1  0.90336525  0.34685450  0.52788700  1
  O  O1655  1  0.90336525  0.34685450  0.77788700  1
  O  O1656  1  0.90336525  0.59685450  0.02788700  1
  O  O1657  1  0.90336525  0.59685450  0.27788700  1
  O  O1658  1  0.90336525  0.59685450  0.52788700  1
  O  O1659  1  0.90336525  0.59685450  0.77788700  1
  O  O1660  1  0.90336525  0.84685450  0.02788700  1
  O  O1661  1  0.90336525  0.84685450  0.27788700  1
  O  O1662  1  0.90336525  0.84685450  0.52788700  1
  O  O1663  1  0.90336525  0.84685450  0.77788700  1
  O  O1664  1  0.15303925  0.02803925  0.09696075  1
  O  O1665  1  0.15303925  0.02803925  0.34696075  1
  O  O1666  1  0.15303925  0.02803925  0.59696075  1
  O  O1667  1  0.15303925  0.02803925  0.84696075  1
  O  O1668  1  0.15303925  0.27803925  0.09696075  1
  O  O1669  1  0.15303925  0.27803925  0.34696075  1
  O  O1670  1  0.15303925  0.27803925  0.59696075  1
  O  O1671  1  0.15303925  0.27803925  0.84696075  1
  O  O1672  1  0.15303925  0.52803925  0.09696075  1
  O  O1673  1  0.15303925  0.52803925  0.34696075  1
  O  O1674  1  0.15303925  0.52803925  0.59696075  1
  O  O1675  1  0.15303925  0.52803925  0.84696075  1
  O  O1676  1  0.15303925  0.77803925  0.09696075  1
  O  O1677  1  0.15303925  0.77803925  0.34696075  1
  O  O1678  1  0.15303925  0.77803925  0.59696075  1
  O  O1679  1  0.15303925  0.77803925  0.84696075  1
  O  O1680  1  0.40303925  0.02803925  0.09696075  1
  O  O1681  1  0.40303925  0.02803925  0.34696075  1
  O  O1682  1  0.40303925  0.02803925  0.59696075  1
  O  O1683  1  0.40303925  0.02803925  0.84696075  1
  O  O1684  1  0.40303925  0.27803925  0.09696075  1
  O  O1685  1  0.40303925  0.27803925  0.34696075  1
  O  O1686  1  0.40303925  0.27803925  0.59696075  1
  O  O1687  1  0.40303925  0.27803925  0.84696075  1
  O  O1688  1  0.40303925  0.52803925  0.09696075  1
  O  O1689  1  0.40303925  0.52803925  0.34696075  1
  O  O1690  1  0.40303925  0.52803925  0.59696075  1
  O  O1691  1  0.40303925  0.52803925  0.84696075  1
  O  O1692  1  0.40303925  0.77803925  0.09696075  1
  O  O1693  1  0.40303925  0.77803925  0.34696075  1
  O  O1694  1  0.40303925  0.77803925  0.59696075  1
  O  O1695  1  0.40303925  0.77803925  0.84696075  1
  O  O1696  1  0.65303925  0.02803925  0.09696075  1
  O  O1697  1  0.65303925  0.02803925  0.34696075  1
  O  O1698  1  0.65303925  0.02803925  0.59696075  1
  O  O1699  1  0.65303925  0.02803925  0.84696075  1
  O  O1700  1  0.65303925  0.27803925  0.09696075  1
  O  O1701  1  0.65303925  0.27803925  0.34696075  1
  O  O1702  1  0.65303925  0.27803925  0.59696075  1
  O  O1703  1  0.65303925  0.27803925  0.84696075  1
  O  O1704  1  0.65303925  0.52803925  0.09696075  1
  O  O1705  1  0.65303925  0.52803925  0.34696075  1
  O  O1706  1  0.65303925  0.52803925  0.59696075  1
  O  O1707  1  0.65303925  0.52803925  0.84696075  1
  O  O1708  1  0.65303925  0.77803925  0.09696075  1
  O  O1709  1  0.65303925  0.77803925  0.34696075  1
  O  O1710  1  0.65303925  0.77803925  0.59696075  1
  O  O1711  1  0.65303925  0.77803925  0.84696075  1
  O  O1712  1  0.90303925  0.02803925  0.09696075  1
  O  O1713  1  0.90303925  0.02803925  0.34696075  1
  O  O1714  1  0.90303925  0.02803925  0.59696075  1
  O  O1715  1  0.90303925  0.02803925  0.84696075  1
  O  O1716  1  0.90303925  0.27803925  0.09696075  1
  O  O1717  1  0.90303925  0.27803925  0.34696075  1
  O  O1718  1  0.90303925  0.27803925  0.59696075  1
  O  O1719  1  0.90303925  0.27803925  0.84696075  1
  O  O1720  1  0.90303925  0.52803925  0.09696075  1
  O  O1721  1  0.90303925  0.52803925  0.34696075  1
  O  O1722  1  0.90303925  0.52803925  0.59696075  1
  O  O1723  1  0.90303925  0.52803925  0.84696075  1
  O  O1724  1  0.90303925  0.77803925  0.09696075  1
  O  O1725  1  0.90303925  0.77803925  0.34696075  1
  O  O1726  1  0.90303925  0.77803925  0.59696075  1
  O  O1727  1  0.90303925  0.77803925  0.84696075  1
  O  O1728  1  0.15961300  0.15935450  0.09086525  1
  O  O1729  1  0.15961300  0.15935450  0.34086525  1
  O  O1730  1  0.15961300  0.15935450  0.59086525  1
  O  O1731  1  0.15961300  0.15935450  0.84086525  1
  O  O1732  1  0.15961300  0.40935450  0.09086525  1
  O  O1733  1  0.15961300  0.40935450  0.34086525  1
  O  O1734  1  0.15961300  0.40935450  0.59086525  1
  O  O1735  1  0.15961300  0.40935450  0.84086525  1
  O  O1736  1  0.15961300  0.65935450  0.09086525  1
  O  O1737  1  0.15961300  0.65935450  0.34086525  1
  O  O1738  1  0.15961300  0.65935450  0.59086525  1
  O  O1739  1  0.15961300  0.65935450  0.84086525  1
  O  O1740  1  0.15961300  0.90935450  0.09086525  1
  O  O1741  1  0.15961300  0.90935450  0.34086525  1
  O  O1742  1  0.15961300  0.90935450  0.59086525  1
  O  O1743  1  0.15961300  0.90935450  0.84086525  1
  O  O1744  1  0.40961300  0.15935450  0.09086525  1
  O  O1745  1  0.40961300  0.15935450  0.34086525  1
  O  O1746  1  0.40961300  0.15935450  0.59086525  1
  O  O1747  1  0.40961300  0.15935450  0.84086525  1
  O  O1748  1  0.40961300  0.40935450  0.09086525  1
  O  O1749  1  0.40961300  0.40935450  0.34086525  1
  O  O1750  1  0.40961300  0.40935450  0.59086525  1
  O  O1751  1  0.40961300  0.40935450  0.84086525  1
  O  O1752  1  0.40961300  0.65935450  0.09086525  1
  O  O1753  1  0.40961300  0.65935450  0.34086525  1
  O  O1754  1  0.40961300  0.65935450  0.59086525  1
  O  O1755  1  0.40961300  0.65935450  0.84086525  1
  O  O1756  1  0.40961300  0.90935450  0.09086525  1
  O  O1757  1  0.40961300  0.90935450  0.34086525  1
  O  O1758  1  0.40961300  0.90935450  0.59086525  1
  O  O1759  1  0.40961300  0.90935450  0.84086525  1
  O  O1760  1  0.65961300  0.15935450  0.09086525  1
  O  O1761  1  0.65961300  0.15935450  0.34086525  1
  O  O1762  1  0.65961300  0.15935450  0.59086525  1
  O  O1763  1  0.65961300  0.15935450  0.84086525  1
  O  O1764  1  0.65961300  0.40935450  0.09086525  1
  O  O1765  1  0.65961300  0.40935450  0.34086525  1
  O  O1766  1  0.65961300  0.40935450  0.59086525  1
  O  O1767  1  0.65961300  0.40935450  0.84086525  1
  O  O1768  1  0.65961300  0.65935450  0.09086525  1
  O  O1769  1  0.65961300  0.65935450  0.34086525  1
  O  O1770  1  0.65961300  0.65935450  0.59086525  1
  O  O1771  1  0.65961300  0.65935450  0.84086525  1
  O  O1772  1  0.65961300  0.90935450  0.09086525  1
  O  O1773  1  0.65961300  0.90935450  0.34086525  1
  O  O1774  1  0.65961300  0.90935450  0.59086525  1
  O  O1775  1  0.65961300  0.90935450  0.84086525  1
  O  O1776  1  0.90961300  0.15935450  0.09086525  1
  O  O1777  1  0.90961300  0.15935450  0.34086525  1
  O  O1778  1  0.90961300  0.15935450  0.59086525  1
  O  O1779  1  0.90961300  0.15935450  0.84086525  1
  O  O1780  1  0.90961300  0.40935450  0.09086525  1
  O  O1781  1  0.90961300  0.40935450  0.34086525  1
  O  O1782  1  0.90961300  0.40935450  0.59086525  1
  O  O1783  1  0.90961300  0.40935450  0.84086525  1
  O  O1784  1  0.90961300  0.65935450  0.09086525  1
  O  O1785  1  0.90961300  0.65935450  0.34086525  1
  O  O1786  1  0.90961300  0.65935450  0.59086525  1
  O  O1787  1  0.90961300  0.65935450  0.84086525  1
  O  O1788  1  0.90961300  0.90935450  0.09086525  1
  O  O1789  1  0.90961300  0.90935450  0.34086525  1
  O  O1790  1  0.90961300  0.90935450  0.59086525  1
  O  O1791  1  0.90961300  0.90935450  0.84086525  1
  O  O1792  1  0.15288700  0.22163475  0.15314550  1
  O  O1793  1  0.15288700  0.22163475  0.40314550  1
  O  O1794  1  0.15288700  0.22163475  0.65314550  1
  O  O1795  1  0.15288700  0.22163475  0.90314550  1
  O  O1796  1  0.15288700  0.47163475  0.15314550  1
  O  O1797  1  0.15288700  0.47163475  0.40314550  1
  O  O1798  1  0.15288700  0.47163475  0.65314550  1
  O  O1799  1  0.15288700  0.47163475  0.90314550  1
  O  O1800  1  0.15288700  0.72163475  0.15314550  1
  O  O1801  1  0.15288700  0.72163475  0.40314550  1
  O  O1802  1  0.15288700  0.72163475  0.65314550  1
  O  O1803  1  0.15288700  0.72163475  0.90314550  1
  O  O1804  1  0.15288700  0.97163475  0.15314550  1
  O  O1805  1  0.15288700  0.97163475  0.40314550  1
  O  O1806  1  0.15288700  0.97163475  0.65314550  1
  O  O1807  1  0.15288700  0.97163475  0.90314550  1
  O  O1808  1  0.40288700  0.22163475  0.15314550  1
  O  O1809  1  0.40288700  0.22163475  0.40314550  1
  O  O1810  1  0.40288700  0.22163475  0.65314550  1
  O  O1811  1  0.40288700  0.22163475  0.90314550  1
  O  O1812  1  0.40288700  0.47163475  0.15314550  1
  O  O1813  1  0.40288700  0.47163475  0.40314550  1
  O  O1814  1  0.40288700  0.47163475  0.65314550  1
  O  O1815  1  0.40288700  0.47163475  0.90314550  1
  O  O1816  1  0.40288700  0.72163475  0.15314550  1
  O  O1817  1  0.40288700  0.72163475  0.40314550  1
  O  O1818  1  0.40288700  0.72163475  0.65314550  1
  O  O1819  1  0.40288700  0.72163475  0.90314550  1
  O  O1820  1  0.40288700  0.97163475  0.15314550  1
  O  O1821  1  0.40288700  0.97163475  0.40314550  1
  O  O1822  1  0.40288700  0.97163475  0.65314550  1
  O  O1823  1  0.40288700  0.97163475  0.90314550  1
  O  O1824  1  0.65288700  0.22163475  0.15314550  1
  O  O1825  1  0.65288700  0.22163475  0.40314550  1
  O  O1826  1  0.65288700  0.22163475  0.65314550  1
  O  O1827  1  0.65288700  0.22163475  0.90314550  1
  O  O1828  1  0.65288700  0.47163475  0.15314550  1
  O  O1829  1  0.65288700  0.47163475  0.40314550  1
  O  O1830  1  0.65288700  0.47163475  0.65314550  1
  O  O1831  1  0.65288700  0.47163475  0.90314550  1
  O  O1832  1  0.65288700  0.72163475  0.15314550  1
  O  O1833  1  0.65288700  0.72163475  0.40314550  1
  O  O1834  1  0.65288700  0.72163475  0.65314550  1
  O  O1835  1  0.65288700  0.72163475  0.90314550  1
  O  O1836  1  0.65288700  0.97163475  0.15314550  1
  O  O1837  1  0.65288700  0.97163475  0.40314550  1
  O  O1838  1  0.65288700  0.97163475  0.65314550  1
  O  O1839  1  0.65288700  0.97163475  0.90314550  1
  O  O1840  1  0.90288700  0.22163475  0.15314550  1
  O  O1841  1  0.90288700  0.22163475  0.40314550  1
  O  O1842  1  0.90288700  0.22163475  0.65314550  1
  O  O1843  1  0.90288700  0.22163475  0.90314550  1
  O  O1844  1  0.90288700  0.47163475  0.15314550  1
  O  O1845  1  0.90288700  0.47163475  0.40314550  1
  O  O1846  1  0.90288700  0.47163475  0.65314550  1
  O  O1847  1  0.90288700  0.47163475  0.90314550  1
  O  O1848  1  0.90288700  0.72163475  0.15314550  1
  O  O1849  1  0.90288700  0.72163475  0.40314550  1
  O  O1850  1  0.90288700  0.72163475  0.65314550  1
  O  O1851  1  0.90288700  0.72163475  0.90314550  1
  O  O1852  1  0.90288700  0.97163475  0.15314550  1
  O  O1853  1  0.90288700  0.97163475  0.40314550  1
  O  O1854  1  0.90288700  0.97163475  0.65314550  1
  O  O1855  1  0.90288700  0.97163475  0.90314550  1
  O  O1856  1  0.15946075  0.21553925  0.03446075  1
  O  O1857  1  0.15946075  0.21553925  0.28446075  1
  O  O1858  1  0.15946075  0.21553925  0.53446075  1
  O  O1859  1  0.15946075  0.21553925  0.78446075  1
  O  O1860  1  0.15946075  0.46553925  0.03446075  1
  O  O1861  1  0.15946075  0.46553925  0.28446075  1
  O  O1862  1  0.15946075  0.46553925  0.53446075  1
  O  O1863  1  0.15946075  0.46553925  0.78446075  1
  O  O1864  1  0.15946075  0.71553925  0.03446075  1
  O  O1865  1  0.15946075  0.71553925  0.28446075  1
  O  O1866  1  0.15946075  0.71553925  0.53446075  1
  O  O1867  1  0.15946075  0.71553925  0.78446075  1
  O  O1868  1  0.15946075  0.96553925  0.03446075  1
  O  O1869  1  0.15946075  0.96553925  0.28446075  1
  O  O1870  1  0.15946075  0.96553925  0.53446075  1
  O  O1871  1  0.15946075  0.96553925  0.78446075  1
  O  O1872  1  0.40946075  0.21553925  0.03446075  1
  O  O1873  1  0.40946075  0.21553925  0.28446075  1
  O  O1874  1  0.40946075  0.21553925  0.53446075  1
  O  O1875  1  0.40946075  0.21553925  0.78446075  1
  O  O1876  1  0.40946075  0.46553925  0.03446075  1
  O  O1877  1  0.40946075  0.46553925  0.28446075  1
  O  O1878  1  0.40946075  0.46553925  0.53446075  1
  O  O1879  1  0.40946075  0.46553925  0.78446075  1
  O  O1880  1  0.40946075  0.71553925  0.03446075  1
  O  O1881  1  0.40946075  0.71553925  0.28446075  1
  O  O1882  1  0.40946075  0.71553925  0.53446075  1
  O  O1883  1  0.40946075  0.71553925  0.78446075  1
  O  O1884  1  0.40946075  0.96553925  0.03446075  1
  O  O1885  1  0.40946075  0.96553925  0.28446075  1
  O  O1886  1  0.40946075  0.96553925  0.53446075  1
  O  O1887  1  0.40946075  0.96553925  0.78446075  1
  O  O1888  1  0.65946075  0.21553925  0.03446075  1
  O  O1889  1  0.65946075  0.21553925  0.28446075  1
  O  O1890  1  0.65946075  0.21553925  0.53446075  1
  O  O1891  1  0.65946075  0.21553925  0.78446075  1
  O  O1892  1  0.65946075  0.46553925  0.03446075  1
  O  O1893  1  0.65946075  0.46553925  0.28446075  1
  O  O1894  1  0.65946075  0.46553925  0.53446075  1
  O  O1895  1  0.65946075  0.46553925  0.78446075  1
  O  O1896  1  0.65946075  0.71553925  0.03446075  1
  O  O1897  1  0.65946075  0.71553925  0.28446075  1
  O  O1898  1  0.65946075  0.71553925  0.53446075  1
  O  O1899  1  0.65946075  0.71553925  0.78446075  1
  O  O1900  1  0.65946075  0.96553925  0.03446075  1
  O  O1901  1  0.65946075  0.96553925  0.28446075  1
  O  O1902  1  0.65946075  0.96553925  0.53446075  1
  O  O1903  1  0.65946075  0.96553925  0.78446075  1
  O  O1904  1  0.90946075  0.21553925  0.03446075  1
  O  O1905  1  0.90946075  0.21553925  0.28446075  1
  O  O1906  1  0.90946075  0.21553925  0.53446075  1
  O  O1907  1  0.90946075  0.21553925  0.78446075  1
  O  O1908  1  0.90946075  0.46553925  0.03446075  1
  O  O1909  1  0.90946075  0.46553925  0.28446075  1
  O  O1910  1  0.90946075  0.46553925  0.53446075  1
  O  O1911  1  0.90946075  0.46553925  0.78446075  1
  O  O1912  1  0.90946075  0.71553925  0.03446075  1
  O  O1913  1  0.90946075  0.71553925  0.28446075  1
  O  O1914  1  0.90946075  0.71553925  0.53446075  1
  O  O1915  1  0.90946075  0.71553925  0.78446075  1
  O  O1916  1  0.90946075  0.96553925  0.03446075  1
  O  O1917  1  0.90946075  0.96553925  0.28446075  1
  O  O1918  1  0.90946075  0.96553925  0.53446075  1
  O  O1919  1  0.90946075  0.96553925  0.78446075  1
  O  O1920  1  0.15913475  0.03461300  0.21564550  1
  O  O1921  1  0.15913475  0.03461300  0.46564550  1
  O  O1922  1  0.15913475  0.03461300  0.71564550  1
  O  O1923  1  0.15913475  0.03461300  0.96564550  1
  O  O1924  1  0.15913475  0.28461300  0.21564550  1
  O  O1925  1  0.15913475  0.28461300  0.46564550  1
  O  O1926  1  0.15913475  0.28461300  0.71564550  1
  O  O1927  1  0.15913475  0.28461300  0.96564550  1
  O  O1928  1  0.15913475  0.53461300  0.21564550  1
  O  O1929  1  0.15913475  0.53461300  0.46564550  1
  O  O1930  1  0.15913475  0.53461300  0.71564550  1
  O  O1931  1  0.15913475  0.53461300  0.96564550  1
  O  O1932  1  0.15913475  0.78461300  0.21564550  1
  O  O1933  1  0.15913475  0.78461300  0.46564550  1
  O  O1934  1  0.15913475  0.78461300  0.71564550  1
  O  O1935  1  0.15913475  0.78461300  0.96564550  1
  O  O1936  1  0.40913475  0.03461300  0.21564550  1
  O  O1937  1  0.40913475  0.03461300  0.46564550  1
  O  O1938  1  0.40913475  0.03461300  0.71564550  1
  O  O1939  1  0.40913475  0.03461300  0.96564550  1
  O  O1940  1  0.40913475  0.28461300  0.21564550  1
  O  O1941  1  0.40913475  0.28461300  0.46564550  1
  O  O1942  1  0.40913475  0.28461300  0.71564550  1
  O  O1943  1  0.40913475  0.28461300  0.96564550  1
  O  O1944  1  0.40913475  0.53461300  0.21564550  1
  O  O1945  1  0.40913475  0.53461300  0.46564550  1
  O  O1946  1  0.40913475  0.53461300  0.71564550  1
  O  O1947  1  0.40913475  0.53461300  0.96564550  1
  O  O1948  1  0.40913475  0.78461300  0.21564550  1
  O  O1949  1  0.40913475  0.78461300  0.46564550  1
  O  O1950  1  0.40913475  0.78461300  0.71564550  1
  O  O1951  1  0.40913475  0.78461300  0.96564550  1
  O  O1952  1  0.65913475  0.03461300  0.21564550  1
  O  O1953  1  0.65913475  0.03461300  0.46564550  1
  O  O1954  1  0.65913475  0.03461300  0.71564550  1
  O  O1955  1  0.65913475  0.03461300  0.96564550  1
  O  O1956  1  0.65913475  0.28461300  0.21564550  1
  O  O1957  1  0.65913475  0.28461300  0.46564550  1
  O  O1958  1  0.65913475  0.28461300  0.71564550  1
  O  O1959  1  0.65913475  0.28461300  0.96564550  1
  O  O1960  1  0.65913475  0.53461300  0.21564550  1
  O  O1961  1  0.65913475  0.53461300  0.46564550  1
  O  O1962  1  0.65913475  0.53461300  0.71564550  1
  O  O1963  1  0.65913475  0.53461300  0.96564550  1
  O  O1964  1  0.65913475  0.78461300  0.21564550  1
  O  O1965  1  0.65913475  0.78461300  0.46564550  1
  O  O1966  1  0.65913475  0.78461300  0.71564550  1
  O  O1967  1  0.65913475  0.78461300  0.96564550  1
  O  O1968  1  0.90913475  0.03461300  0.21564550  1
  O  O1969  1  0.90913475  0.03461300  0.46564550  1
  O  O1970  1  0.90913475  0.03461300  0.71564550  1
  O  O1971  1  0.90913475  0.03461300  0.96564550  1
  O  O1972  1  0.90913475  0.28461300  0.21564550  1
  O  O1973  1  0.90913475  0.28461300  0.46564550  1
  O  O1974  1  0.90913475  0.28461300  0.71564550  1
  O  O1975  1  0.90913475  0.28461300  0.96564550  1
  O  O1976  1  0.90913475  0.53461300  0.21564550  1
  O  O1977  1  0.90913475  0.53461300  0.46564550  1
  O  O1978  1  0.90913475  0.53461300  0.71564550  1
  O  O1979  1  0.90913475  0.53461300  0.96564550  1
  O  O1980  1  0.90913475  0.78461300  0.21564550  1
  O  O1981  1  0.90913475  0.78461300  0.46564550  1
  O  O1982  1  0.90913475  0.78461300  0.71564550  1
  O  O1983  1  0.90913475  0.78461300  0.96564550  1
  O  O1984  1  0.15935450  0.09086525  0.15961300  1
  O  O1985  1  0.15935450  0.09086525  0.40961300  1
  O  O1986  1  0.15935450  0.09086525  0.65961300  1
  O  O1987  1  0.15935450  0.09086525  0.90961300  1
  O  O1988  1  0.15935450  0.34086525  0.15961300  1
  O  O1989  1  0.15935450  0.34086525  0.40961300  1
  O  O1990  1  0.15935450  0.34086525  0.65961300  1
  O  O1991  1  0.15935450  0.34086525  0.90961300  1
  O  O1992  1  0.15935450  0.59086525  0.15961300  1
  O  O1993  1  0.15935450  0.59086525  0.40961300  1
  O  O1994  1  0.15935450  0.59086525  0.65961300  1
  O  O1995  1  0.15935450  0.59086525  0.90961300  1
  O  O1996  1  0.15935450  0.84086525  0.15961300  1
  O  O1997  1  0.15935450  0.84086525  0.40961300  1
  O  O1998  1  0.15935450  0.84086525  0.65961300  1
  O  O1999  1  0.15935450  0.84086525  0.90961300  1
  O  O2000  1  0.40935450  0.09086525  0.15961300  1
  O  O2001  1  0.40935450  0.09086525  0.40961300  1
  O  O2002  1  0.40935450  0.09086525  0.65961300  1
  O  O2003  1  0.40935450  0.09086525  0.90961300  1
  O  O2004  1  0.40935450  0.34086525  0.15961300  1
  O  O2005  1  0.40935450  0.34086525  0.40961300  1
  O  O2006  1  0.40935450  0.34086525  0.65961300  1
  O  O2007  1  0.40935450  0.34086525  0.90961300  1
  O  O2008  1  0.40935450  0.59086525  0.15961300  1
  O  O2009  1  0.40935450  0.59086525  0.40961300  1
  O  O2010  1  0.40935450  0.59086525  0.65961300  1
  O  O2011  1  0.40935450  0.59086525  0.90961300  1
  O  O2012  1  0.40935450  0.84086525  0.15961300  1
  O  O2013  1  0.40935450  0.84086525  0.40961300  1
  O  O2014  1  0.40935450  0.84086525  0.65961300  1
  O  O2015  1  0.40935450  0.84086525  0.90961300  1
  O  O2016  1  0.65935450  0.09086525  0.15961300  1
  O  O2017  1  0.65935450  0.09086525  0.40961300  1
  O  O2018  1  0.65935450  0.09086525  0.65961300  1
  O  O2019  1  0.65935450  0.09086525  0.90961300  1
  O  O2020  1  0.65935450  0.34086525  0.15961300  1
  O  O2021  1  0.65935450  0.34086525  0.40961300  1
  O  O2022  1  0.65935450  0.34086525  0.65961300  1
  O  O2023  1  0.65935450  0.34086525  0.90961300  1
  O  O2024  1  0.65935450  0.59086525  0.15961300  1
  O  O2025  1  0.65935450  0.59086525  0.40961300  1
  O  O2026  1  0.65935450  0.59086525  0.65961300  1
  O  O2027  1  0.65935450  0.59086525  0.90961300  1
  O  O2028  1  0.65935450  0.84086525  0.15961300  1
  O  O2029  1  0.65935450  0.84086525  0.40961300  1
  O  O2030  1  0.65935450  0.84086525  0.65961300  1
  O  O2031  1  0.65935450  0.84086525  0.90961300  1
  O  O2032  1  0.90935450  0.09086525  0.15961300  1
  O  O2033  1  0.90935450  0.09086525  0.40961300  1
  O  O2034  1  0.90935450  0.09086525  0.65961300  1
  O  O2035  1  0.90935450  0.09086525  0.90961300  1
  O  O2036  1  0.90935450  0.34086525  0.15961300  1
  O  O2037  1  0.90935450  0.34086525  0.40961300  1
  O  O2038  1  0.90935450  0.34086525  0.65961300  1
  O  O2039  1  0.90935450  0.34086525  0.90961300  1
  O  O2040  1  0.90935450  0.59086525  0.15961300  1
  O  O2041  1  0.90935450  0.59086525  0.40961300  1
  O  O2042  1  0.90935450  0.59086525  0.65961300  1
  O  O2043  1  0.90935450  0.59086525  0.90961300  1
  O  O2044  1  0.90935450  0.84086525  0.15961300  1
  O  O2045  1  0.90935450  0.84086525  0.40961300  1
  O  O2046  1  0.90935450  0.84086525  0.65961300  1
  O  O2047  1  0.90935450  0.84086525  0.90961300  1
  O  O2048  1  0.21564550  0.15913475  0.03461300  1
  O  O2049  1  0.21564550  0.15913475  0.28461300  1
  O  O2050  1  0.21564550  0.15913475  0.53461300  1
  O  O2051  1  0.21564550  0.15913475  0.78461300  1
  O  O2052  1  0.21564550  0.40913475  0.03461300  1
  O  O2053  1  0.21564550  0.40913475  0.28461300  1
  O  O2054  1  0.21564550  0.40913475  0.53461300  1
  O  O2055  1  0.21564550  0.40913475  0.78461300  1
  O  O2056  1  0.21564550  0.65913475  0.03461300  1
  O  O2057  1  0.21564550  0.65913475  0.28461300  1
  O  O2058  1  0.21564550  0.65913475  0.53461300  1
  O  O2059  1  0.21564550  0.65913475  0.78461300  1
  O  O2060  1  0.21564550  0.90913475  0.03461300  1
  O  O2061  1  0.21564550  0.90913475  0.28461300  1
  O  O2062  1  0.21564550  0.90913475  0.53461300  1
  O  O2063  1  0.21564550  0.90913475  0.78461300  1
  O  O2064  1  0.46564550  0.15913475  0.03461300  1
  O  O2065  1  0.46564550  0.15913475  0.28461300  1
  O  O2066  1  0.46564550  0.15913475  0.53461300  1
  O  O2067  1  0.46564550  0.15913475  0.78461300  1
  O  O2068  1  0.46564550  0.40913475  0.03461300  1
  O  O2069  1  0.46564550  0.40913475  0.28461300  1
  O  O2070  1  0.46564550  0.40913475  0.53461300  1
  O  O2071  1  0.46564550  0.40913475  0.78461300  1
  O  O2072  1  0.46564550  0.65913475  0.03461300  1
  O  O2073  1  0.46564550  0.65913475  0.28461300  1
  O  O2074  1  0.46564550  0.65913475  0.53461300  1
  O  O2075  1  0.46564550  0.65913475  0.78461300  1
  O  O2076  1  0.46564550  0.90913475  0.03461300  1
  O  O2077  1  0.46564550  0.90913475  0.28461300  1
  O  O2078  1  0.46564550  0.90913475  0.53461300  1
  O  O2079  1  0.46564550  0.90913475  0.78461300  1
  O  O2080  1  0.71564550  0.15913475  0.03461300  1
  O  O2081  1  0.71564550  0.15913475  0.28461300  1
  O  O2082  1  0.71564550  0.15913475  0.53461300  1
  O  O2083  1  0.71564550  0.15913475  0.78461300  1
  O  O2084  1  0.71564550  0.40913475  0.03461300  1
  O  O2085  1  0.71564550  0.40913475  0.28461300  1
  O  O2086  1  0.71564550  0.40913475  0.53461300  1
  O  O2087  1  0.71564550  0.40913475  0.78461300  1
  O  O2088  1  0.71564550  0.65913475  0.03461300  1
  O  O2089  1  0.71564550  0.65913475  0.28461300  1
  O  O2090  1  0.71564550  0.65913475  0.53461300  1
  O  O2091  1  0.71564550  0.65913475  0.78461300  1
  O  O2092  1  0.71564550  0.90913475  0.03461300  1
  O  O2093  1  0.71564550  0.90913475  0.28461300  1
  O  O2094  1  0.71564550  0.90913475  0.53461300  1
  O  O2095  1  0.71564550  0.90913475  0.78461300  1
  O  O2096  1  0.96564550  0.15913475  0.03461300  1
  O  O2097  1  0.96564550  0.15913475  0.28461300  1
  O  O2098  1  0.96564550  0.15913475  0.53461300  1
  O  O2099  1  0.96564550  0.15913475  0.78461300  1
  O  O2100  1  0.96564550  0.40913475  0.03461300  1
  O  O2101  1  0.96564550  0.40913475  0.28461300  1
  O  O2102  1  0.96564550  0.40913475  0.53461300  1
  O  O2103  1  0.96564550  0.40913475  0.78461300  1
  O  O2104  1  0.96564550  0.65913475  0.03461300  1
  O  O2105  1  0.96564550  0.65913475  0.28461300  1
  O  O2106  1  0.96564550  0.65913475  0.53461300  1
  O  O2107  1  0.96564550  0.65913475  0.78461300  1
  O  O2108  1  0.96564550  0.90913475  0.03461300  1
  O  O2109  1  0.96564550  0.90913475  0.28461300  1
  O  O2110  1  0.96564550  0.90913475  0.53461300  1
  O  O2111  1  0.96564550  0.90913475  0.78461300  1
  O  O2112  1  0.21586525  0.21538700  0.09064550  1
  O  O2113  1  0.21586525  0.21538700  0.34064550  1
  O  O2114  1  0.21586525  0.21538700  0.59064550  1
  O  O2115  1  0.21586525  0.21538700  0.84064550  1
  O  O2116  1  0.21586525  0.46538700  0.09064550  1
  O  O2117  1  0.21586525  0.46538700  0.34064550  1
  O  O2118  1  0.21586525  0.46538700  0.59064550  1
  O  O2119  1  0.21586525  0.46538700  0.84064550  1
  O  O2120  1  0.21586525  0.71538700  0.09064550  1
  O  O2121  1  0.21586525  0.71538700  0.34064550  1
  O  O2122  1  0.21586525  0.71538700  0.59064550  1
  O  O2123  1  0.21586525  0.71538700  0.84064550  1
  O  O2124  1  0.21586525  0.96538700  0.09064550  1
  O  O2125  1  0.21586525  0.96538700  0.34064550  1
  O  O2126  1  0.21586525  0.96538700  0.59064550  1
  O  O2127  1  0.21586525  0.96538700  0.84064550  1
  O  O2128  1  0.46586525  0.21538700  0.09064550  1
  O  O2129  1  0.46586525  0.21538700  0.34064550  1
  O  O2130  1  0.46586525  0.21538700  0.59064550  1
  O  O2131  1  0.46586525  0.21538700  0.84064550  1
  O  O2132  1  0.46586525  0.46538700  0.09064550  1
  O  O2133  1  0.46586525  0.46538700  0.34064550  1
  O  O2134  1  0.46586525  0.46538700  0.59064550  1
  O  O2135  1  0.46586525  0.46538700  0.84064550  1
  O  O2136  1  0.46586525  0.71538700  0.09064550  1
  O  O2137  1  0.46586525  0.71538700  0.34064550  1
  O  O2138  1  0.46586525  0.71538700  0.59064550  1
  O  O2139  1  0.46586525  0.71538700  0.84064550  1
  O  O2140  1  0.46586525  0.96538700  0.09064550  1
  O  O2141  1  0.46586525  0.96538700  0.34064550  1
  O  O2142  1  0.46586525  0.96538700  0.59064550  1
  O  O2143  1  0.46586525  0.96538700  0.84064550  1
  O  O2144  1  0.71586525  0.21538700  0.09064550  1
  O  O2145  1  0.71586525  0.21538700  0.34064550  1
  O  O2146  1  0.71586525  0.21538700  0.59064550  1
  O  O2147  1  0.71586525  0.21538700  0.84064550  1
  O  O2148  1  0.71586525  0.46538700  0.09064550  1
  O  O2149  1  0.71586525  0.46538700  0.34064550  1
  O  O2150  1  0.71586525  0.46538700  0.59064550  1
  O  O2151  1  0.71586525  0.46538700  0.84064550  1
  O  O2152  1  0.71586525  0.71538700  0.09064550  1
  O  O2153  1  0.71586525  0.71538700  0.34064550  1
  O  O2154  1  0.71586525  0.71538700  0.59064550  1
  O  O2155  1  0.71586525  0.71538700  0.84064550  1
  O  O2156  1  0.71586525  0.96538700  0.09064550  1
  O  O2157  1  0.71586525  0.96538700  0.34064550  1
  O  O2158  1  0.71586525  0.96538700  0.59064550  1
  O  O2159  1  0.71586525  0.96538700  0.84064550  1
  O  O2160  1  0.96586525  0.21538700  0.09064550  1
  O  O2161  1  0.96586525  0.21538700  0.34064550  1
  O  O2162  1  0.96586525  0.21538700  0.59064550  1
  O  O2163  1  0.96586525  0.21538700  0.84064550  1
  O  O2164  1  0.96586525  0.46538700  0.09064550  1
  O  O2165  1  0.96586525  0.46538700  0.34064550  1
  O  O2166  1  0.96586525  0.46538700  0.59064550  1
  O  O2167  1  0.96586525  0.46538700  0.84064550  1
  O  O2168  1  0.96586525  0.71538700  0.09064550  1
  O  O2169  1  0.96586525  0.71538700  0.34064550  1
  O  O2170  1  0.96586525  0.71538700  0.59064550  1
  O  O2171  1  0.96586525  0.71538700  0.84064550  1
  O  O2172  1  0.96586525  0.96538700  0.09064550  1
  O  O2173  1  0.96586525  0.96538700  0.34064550  1
  O  O2174  1  0.96586525  0.96538700  0.59064550  1
  O  O2175  1  0.96586525  0.96538700  0.84064550  1
  O  O2176  1  0.21553925  0.03446075  0.15946075  1
  O  O2177  1  0.21553925  0.03446075  0.40946075  1
  O  O2178  1  0.21553925  0.03446075  0.65946075  1
  O  O2179  1  0.21553925  0.03446075  0.90946075  1
  O  O2180  1  0.21553925  0.28446075  0.15946075  1
  O  O2181  1  0.21553925  0.28446075  0.40946075  1
  O  O2182  1  0.21553925  0.28446075  0.65946075  1
  O  O2183  1  0.21553925  0.28446075  0.90946075  1
  O  O2184  1  0.21553925  0.53446075  0.15946075  1
  O  O2185  1  0.21553925  0.53446075  0.40946075  1
  O  O2186  1  0.21553925  0.53446075  0.65946075  1
  O  O2187  1  0.21553925  0.53446075  0.90946075  1
  O  O2188  1  0.21553925  0.78446075  0.15946075  1
  O  O2189  1  0.21553925  0.78446075  0.40946075  1
  O  O2190  1  0.21553925  0.78446075  0.65946075  1
  O  O2191  1  0.21553925  0.78446075  0.90946075  1
  O  O2192  1  0.46553925  0.03446075  0.15946075  1
  O  O2193  1  0.46553925  0.03446075  0.40946075  1
  O  O2194  1  0.46553925  0.03446075  0.65946075  1
  O  O2195  1  0.46553925  0.03446075  0.90946075  1
  O  O2196  1  0.46553925  0.28446075  0.15946075  1
  O  O2197  1  0.46553925  0.28446075  0.40946075  1
  O  O2198  1  0.46553925  0.28446075  0.65946075  1
  O  O2199  1  0.46553925  0.28446075  0.90946075  1
  O  O2200  1  0.46553925  0.53446075  0.15946075  1
  O  O2201  1  0.46553925  0.53446075  0.40946075  1
  O  O2202  1  0.46553925  0.53446075  0.65946075  1
  O  O2203  1  0.46553925  0.53446075  0.90946075  1
  O  O2204  1  0.46553925  0.78446075  0.15946075  1
  O  O2205  1  0.46553925  0.78446075  0.40946075  1
  O  O2206  1  0.46553925  0.78446075  0.65946075  1
  O  O2207  1  0.46553925  0.78446075  0.90946075  1
  O  O2208  1  0.71553925  0.03446075  0.15946075  1
  O  O2209  1  0.71553925  0.03446075  0.40946075  1
  O  O2210  1  0.71553925  0.03446075  0.65946075  1
  O  O2211  1  0.71553925  0.03446075  0.90946075  1
  O  O2212  1  0.71553925  0.28446075  0.15946075  1
  O  O2213  1  0.71553925  0.28446075  0.40946075  1
  O  O2214  1  0.71553925  0.28446075  0.65946075  1
  O  O2215  1  0.71553925  0.28446075  0.90946075  1
  O  O2216  1  0.71553925  0.53446075  0.15946075  1
  O  O2217  1  0.71553925  0.53446075  0.40946075  1
  O  O2218  1  0.71553925  0.53446075  0.65946075  1
  O  O2219  1  0.71553925  0.53446075  0.90946075  1
  O  O2220  1  0.71553925  0.78446075  0.15946075  1
  O  O2221  1  0.71553925  0.78446075  0.40946075  1
  O  O2222  1  0.71553925  0.78446075  0.65946075  1
  O  O2223  1  0.71553925  0.78446075  0.90946075  1
  O  O2224  1  0.96553925  0.03446075  0.15946075  1
  O  O2225  1  0.96553925  0.03446075  0.40946075  1
  O  O2226  1  0.96553925  0.03446075  0.65946075  1
  O  O2227  1  0.96553925  0.03446075  0.90946075  1
  O  O2228  1  0.96553925  0.28446075  0.15946075  1
  O  O2229  1  0.96553925  0.28446075  0.40946075  1
  O  O2230  1  0.96553925  0.28446075  0.65946075  1
  O  O2231  1  0.96553925  0.28446075  0.90946075  1
  O  O2232  1  0.96553925  0.53446075  0.15946075  1
  O  O2233  1  0.96553925  0.53446075  0.40946075  1
  O  O2234  1  0.96553925  0.53446075  0.65946075  1
  O  O2235  1  0.96553925  0.53446075  0.90946075  1
  O  O2236  1  0.96553925  0.78446075  0.15946075  1
  O  O2237  1  0.96553925  0.78446075  0.40946075  1
  O  O2238  1  0.96553925  0.78446075  0.65946075  1
  O  O2239  1  0.96553925  0.78446075  0.90946075  1
  O  O2240  1  0.22211300  0.02836525  0.02814550  1
  O  O2241  1  0.22211300  0.02836525  0.27814550  1
  O  O2242  1  0.22211300  0.02836525  0.52814550  1
  O  O2243  1  0.22211300  0.02836525  0.77814550  1
  O  O2244  1  0.22211300  0.27836525  0.02814550  1
  O  O2245  1  0.22211300  0.27836525  0.27814550  1
  O  O2246  1  0.22211300  0.27836525  0.52814550  1
  O  O2247  1  0.22211300  0.27836525  0.77814550  1
  O  O2248  1  0.22211300  0.52836525  0.02814550  1
  O  O2249  1  0.22211300  0.52836525  0.27814550  1
  O  O2250  1  0.22211300  0.52836525  0.52814550  1
  O  O2251  1  0.22211300  0.52836525  0.77814550  1
  O  O2252  1  0.22211300  0.77836525  0.02814550  1
  O  O2253  1  0.22211300  0.77836525  0.27814550  1
  O  O2254  1  0.22211300  0.77836525  0.52814550  1
  O  O2255  1  0.22211300  0.77836525  0.77814550  1
  O  O2256  1  0.47211300  0.02836525  0.02814550  1
  O  O2257  1  0.47211300  0.02836525  0.27814550  1
  O  O2258  1  0.47211300  0.02836525  0.52814550  1
  O  O2259  1  0.47211300  0.02836525  0.77814550  1
  O  O2260  1  0.47211300  0.27836525  0.02814550  1
  O  O2261  1  0.47211300  0.27836525  0.27814550  1
  O  O2262  1  0.47211300  0.27836525  0.52814550  1
  O  O2263  1  0.47211300  0.27836525  0.77814550  1
  O  O2264  1  0.47211300  0.52836525  0.02814550  1
  O  O2265  1  0.47211300  0.52836525  0.27814550  1
  O  O2266  1  0.47211300  0.52836525  0.52814550  1
  O  O2267  1  0.47211300  0.52836525  0.77814550  1
  O  O2268  1  0.47211300  0.77836525  0.02814550  1
  O  O2269  1  0.47211300  0.77836525  0.27814550  1
  O  O2270  1  0.47211300  0.77836525  0.52814550  1
  O  O2271  1  0.47211300  0.77836525  0.77814550  1
  O  O2272  1  0.72211300  0.02836525  0.02814550  1
  O  O2273  1  0.72211300  0.02836525  0.27814550  1
  O  O2274  1  0.72211300  0.02836525  0.52814550  1
  O  O2275  1  0.72211300  0.02836525  0.77814550  1
  O  O2276  1  0.72211300  0.27836525  0.02814550  1
  O  O2277  1  0.72211300  0.27836525  0.27814550  1
  O  O2278  1  0.72211300  0.27836525  0.52814550  1
  O  O2279  1  0.72211300  0.27836525  0.77814550  1
  O  O2280  1  0.72211300  0.52836525  0.02814550  1
  O  O2281  1  0.72211300  0.52836525  0.27814550  1
  O  O2282  1  0.72211300  0.52836525  0.52814550  1
  O  O2283  1  0.72211300  0.52836525  0.77814550  1
  O  O2284  1  0.72211300  0.77836525  0.02814550  1
  O  O2285  1  0.72211300  0.77836525  0.27814550  1
  O  O2286  1  0.72211300  0.77836525  0.52814550  1
  O  O2287  1  0.72211300  0.77836525  0.77814550  1
  O  O2288  1  0.97211300  0.02836525  0.02814550  1
  O  O2289  1  0.97211300  0.02836525  0.27814550  1
  O  O2290  1  0.97211300  0.02836525  0.52814550  1
  O  O2291  1  0.97211300  0.02836525  0.77814550  1
  O  O2292  1  0.97211300  0.27836525  0.02814550  1
  O  O2293  1  0.97211300  0.27836525  0.27814550  1
  O  O2294  1  0.97211300  0.27836525  0.52814550  1
  O  O2295  1  0.97211300  0.27836525  0.77814550  1
  O  O2296  1  0.97211300  0.52836525  0.02814550  1
  O  O2297  1  0.97211300  0.52836525  0.27814550  1
  O  O2298  1  0.97211300  0.52836525  0.52814550  1
  O  O2299  1  0.97211300  0.52836525  0.77814550  1
  O  O2300  1  0.97211300  0.77836525  0.02814550  1
  O  O2301  1  0.97211300  0.77836525  0.27814550  1
  O  O2302  1  0.97211300  0.77836525  0.52814550  1
  O  O2303  1  0.97211300  0.77836525  0.77814550  1
  O  O2304  1  0.21538700  0.09064550  0.21586525  1
  O  O2305  1  0.21538700  0.09064550  0.46586525  1
  O  O2306  1  0.21538700  0.09064550  0.71586525  1
  O  O2307  1  0.21538700  0.09064550  0.96586525  1
  O  O2308  1  0.21538700  0.34064550  0.21586525  1
  O  O2309  1  0.21538700  0.34064550  0.46586525  1
  O  O2310  1  0.21538700  0.34064550  0.71586525  1
  O  O2311  1  0.21538700  0.34064550  0.96586525  1
  O  O2312  1  0.21538700  0.59064550  0.21586525  1
  O  O2313  1  0.21538700  0.59064550  0.46586525  1
  O  O2314  1  0.21538700  0.59064550  0.71586525  1
  O  O2315  1  0.21538700  0.59064550  0.96586525  1
  O  O2316  1  0.21538700  0.84064550  0.21586525  1
  O  O2317  1  0.21538700  0.84064550  0.46586525  1
  O  O2318  1  0.21538700  0.84064550  0.71586525  1
  O  O2319  1  0.21538700  0.84064550  0.96586525  1
  O  O2320  1  0.46538700  0.09064550  0.21586525  1
  O  O2321  1  0.46538700  0.09064550  0.46586525  1
  O  O2322  1  0.46538700  0.09064550  0.71586525  1
  O  O2323  1  0.46538700  0.09064550  0.96586525  1
  O  O2324  1  0.46538700  0.34064550  0.21586525  1
  O  O2325  1  0.46538700  0.34064550  0.46586525  1
  O  O2326  1  0.46538700  0.34064550  0.71586525  1
  O  O2327  1  0.46538700  0.34064550  0.96586525  1
  O  O2328  1  0.46538700  0.59064550  0.21586525  1
  O  O2329  1  0.46538700  0.59064550  0.46586525  1
  O  O2330  1  0.46538700  0.59064550  0.71586525  1
  O  O2331  1  0.46538700  0.59064550  0.96586525  1
  O  O2332  1  0.46538700  0.84064550  0.21586525  1
  O  O2333  1  0.46538700  0.84064550  0.46586525  1
  O  O2334  1  0.46538700  0.84064550  0.71586525  1
  O  O2335  1  0.46538700  0.84064550  0.96586525  1
  O  O2336  1  0.71538700  0.09064550  0.21586525  1
  O  O2337  1  0.71538700  0.09064550  0.46586525  1
  O  O2338  1  0.71538700  0.09064550  0.71586525  1
  O  O2339  1  0.71538700  0.09064550  0.96586525  1
  O  O2340  1  0.71538700  0.34064550  0.21586525  1
  O  O2341  1  0.71538700  0.34064550  0.46586525  1
  O  O2342  1  0.71538700  0.34064550  0.71586525  1
  O  O2343  1  0.71538700  0.34064550  0.96586525  1
  O  O2344  1  0.71538700  0.59064550  0.21586525  1
  O  O2345  1  0.71538700  0.59064550  0.46586525  1
  O  O2346  1  0.71538700  0.59064550  0.71586525  1
  O  O2347  1  0.71538700  0.59064550  0.96586525  1
  O  O2348  1  0.71538700  0.84064550  0.21586525  1
  O  O2349  1  0.71538700  0.84064550  0.46586525  1
  O  O2350  1  0.71538700  0.84064550  0.71586525  1
  O  O2351  1  0.71538700  0.84064550  0.96586525  1
  O  O2352  1  0.96538700  0.09064550  0.21586525  1
  O  O2353  1  0.96538700  0.09064550  0.46586525  1
  O  O2354  1  0.96538700  0.09064550  0.71586525  1
  O  O2355  1  0.96538700  0.09064550  0.96586525  1
  O  O2356  1  0.96538700  0.34064550  0.21586525  1
  O  O2357  1  0.96538700  0.34064550  0.46586525  1
  O  O2358  1  0.96538700  0.34064550  0.71586525  1
  O  O2359  1  0.96538700  0.34064550  0.96586525  1
  O  O2360  1  0.96538700  0.59064550  0.21586525  1
  O  O2361  1  0.96538700  0.59064550  0.46586525  1
  O  O2362  1  0.96538700  0.59064550  0.71586525  1
  O  O2363  1  0.96538700  0.59064550  0.96586525  1
  O  O2364  1  0.96538700  0.84064550  0.21586525  1
  O  O2365  1  0.96538700  0.84064550  0.46586525  1
  O  O2366  1  0.96538700  0.84064550  0.71586525  1
  O  O2367  1  0.96538700  0.84064550  0.96586525  1
  O  O2368  1  0.22196075  0.22196075  0.22196075  1
  O  O2369  1  0.22196075  0.22196075  0.47196075  1
  O  O2370  1  0.22196075  0.22196075  0.72196075  1
  O  O2371  1  0.22196075  0.22196075  0.97196075  1
  O  O2372  1  0.22196075  0.47196075  0.22196075  1
  O  O2373  1  0.22196075  0.47196075  0.47196075  1
  O  O2374  1  0.22196075  0.47196075  0.72196075  1
  O  O2375  1  0.22196075  0.47196075  0.97196075  1
  O  O2376  1  0.22196075  0.72196075  0.22196075  1
  O  O2377  1  0.22196075  0.72196075  0.47196075  1
  O  O2378  1  0.22196075  0.72196075  0.72196075  1
  O  O2379  1  0.22196075  0.72196075  0.97196075  1
  O  O2380  1  0.22196075  0.97196075  0.22196075  1
  O  O2381  1  0.22196075  0.97196075  0.47196075  1
  O  O2382  1  0.22196075  0.97196075  0.72196075  1
  O  O2383  1  0.22196075  0.97196075  0.97196075  1
  O  O2384  1  0.47196075  0.22196075  0.22196075  1
  O  O2385  1  0.47196075  0.22196075  0.47196075  1
  O  O2386  1  0.47196075  0.22196075  0.72196075  1
  O  O2387  1  0.47196075  0.22196075  0.97196075  1
  O  O2388  1  0.47196075  0.47196075  0.22196075  1
  O  O2389  1  0.47196075  0.47196075  0.47196075  1
  O  O2390  1  0.47196075  0.47196075  0.72196075  1
  O  O2391  1  0.47196075  0.47196075  0.97196075  1
  O  O2392  1  0.47196075  0.72196075  0.22196075  1
  O  O2393  1  0.47196075  0.72196075  0.47196075  1
  O  O2394  1  0.47196075  0.72196075  0.72196075  1
  O  O2395  1  0.47196075  0.72196075  0.97196075  1
  O  O2396  1  0.47196075  0.97196075  0.22196075  1
  O  O2397  1  0.47196075  0.97196075  0.47196075  1
  O  O2398  1  0.47196075  0.97196075  0.72196075  1
  O  O2399  1  0.47196075  0.97196075  0.97196075  1
  O  O2400  1  0.72196075  0.22196075  0.22196075  1
  O  O2401  1  0.72196075  0.22196075  0.47196075  1
  O  O2402  1  0.72196075  0.22196075  0.72196075  1
  O  O2403  1  0.72196075  0.22196075  0.97196075  1
  O  O2404  1  0.72196075  0.47196075  0.22196075  1
  O  O2405  1  0.72196075  0.47196075  0.47196075  1
  O  O2406  1  0.72196075  0.47196075  0.72196075  1
  O  O2407  1  0.72196075  0.47196075  0.97196075  1
  O  O2408  1  0.72196075  0.72196075  0.22196075  1
  O  O2409  1  0.72196075  0.72196075  0.47196075  1
  O  O2410  1  0.72196075  0.72196075  0.72196075  1
  O  O2411  1  0.72196075  0.72196075  0.97196075  1
  O  O2412  1  0.72196075  0.97196075  0.22196075  1
  O  O2413  1  0.72196075  0.97196075  0.47196075  1
  O  O2414  1  0.72196075  0.97196075  0.72196075  1
  O  O2415  1  0.72196075  0.97196075  0.97196075  1
  O  O2416  1  0.97196075  0.22196075  0.22196075  1
  O  O2417  1  0.97196075  0.22196075  0.47196075  1
  O  O2418  1  0.97196075  0.22196075  0.72196075  1
  O  O2419  1  0.97196075  0.22196075  0.97196075  1
  O  O2420  1  0.97196075  0.47196075  0.22196075  1
  O  O2421  1  0.97196075  0.47196075  0.47196075  1
  O  O2422  1  0.97196075  0.47196075  0.72196075  1
  O  O2423  1  0.97196075  0.47196075  0.97196075  1
  O  O2424  1  0.97196075  0.72196075  0.22196075  1
  O  O2425  1  0.97196075  0.72196075  0.47196075  1
  O  O2426  1  0.97196075  0.72196075  0.72196075  1
  O  O2427  1  0.97196075  0.72196075  0.97196075  1
  O  O2428  1  0.97196075  0.97196075  0.22196075  1
  O  O2429  1  0.97196075  0.97196075  0.47196075  1
  O  O2430  1  0.97196075  0.97196075  0.72196075  1
  O  O2431  1  0.97196075  0.97196075  0.97196075  1
  O  O2432  1  0.22163475  0.15314550  0.15288700  1
  O  O2433  1  0.22163475  0.15314550  0.40288700  1
  O  O2434  1  0.22163475  0.15314550  0.65288700  1
  O  O2435  1  0.22163475  0.15314550  0.90288700  1
  O  O2436  1  0.22163475  0.40314550  0.15288700  1
  O  O2437  1  0.22163475  0.40314550  0.40288700  1
  O  O2438  1  0.22163475  0.40314550  0.65288700  1
  O  O2439  1  0.22163475  0.40314550  0.90288700  1
  O  O2440  1  0.22163475  0.65314550  0.15288700  1
  O  O2441  1  0.22163475  0.65314550  0.40288700  1
  O  O2442  1  0.22163475  0.65314550  0.65288700  1
  O  O2443  1  0.22163475  0.65314550  0.90288700  1
  O  O2444  1  0.22163475  0.90314550  0.15288700  1
  O  O2445  1  0.22163475  0.90314550  0.40288700  1
  O  O2446  1  0.22163475  0.90314550  0.65288700  1
  O  O2447  1  0.22163475  0.90314550  0.90288700  1
  O  O2448  1  0.47163475  0.15314550  0.15288700  1
  O  O2449  1  0.47163475  0.15314550  0.40288700  1
  O  O2450  1  0.47163475  0.15314550  0.65288700  1
  O  O2451  1  0.47163475  0.15314550  0.90288700  1
  O  O2452  1  0.47163475  0.40314550  0.15288700  1
  O  O2453  1  0.47163475  0.40314550  0.40288700  1
  O  O2454  1  0.47163475  0.40314550  0.65288700  1
  O  O2455  1  0.47163475  0.40314550  0.90288700  1
  O  O2456  1  0.47163475  0.65314550  0.15288700  1
  O  O2457  1  0.47163475  0.65314550  0.40288700  1
  O  O2458  1  0.47163475  0.65314550  0.65288700  1
  O  O2459  1  0.47163475  0.65314550  0.90288700  1
  O  O2460  1  0.47163475  0.90314550  0.15288700  1
  O  O2461  1  0.47163475  0.90314550  0.40288700  1
  O  O2462  1  0.47163475  0.90314550  0.65288700  1
  O  O2463  1  0.47163475  0.90314550  0.90288700  1
  O  O2464  1  0.72163475  0.15314550  0.15288700  1
  O  O2465  1  0.72163475  0.15314550  0.40288700  1
  O  O2466  1  0.72163475  0.15314550  0.65288700  1
  O  O2467  1  0.72163475  0.15314550  0.90288700  1
  O  O2468  1  0.72163475  0.40314550  0.15288700  1
  O  O2469  1  0.72163475  0.40314550  0.40288700  1
  O  O2470  1  0.72163475  0.40314550  0.65288700  1
  O  O2471  1  0.72163475  0.40314550  0.90288700  1
  O  O2472  1  0.72163475  0.65314550  0.15288700  1
  O  O2473  1  0.72163475  0.65314550  0.40288700  1
  O  O2474  1  0.72163475  0.65314550  0.65288700  1
  O  O2475  1  0.72163475  0.65314550  0.90288700  1
  O  O2476  1  0.72163475  0.90314550  0.15288700  1
  O  O2477  1  0.72163475  0.90314550  0.40288700  1
  O  O2478  1  0.72163475  0.90314550  0.65288700  1
  O  O2479  1  0.72163475  0.90314550  0.90288700  1
  O  O2480  1  0.97163475  0.15314550  0.15288700  1
  O  O2481  1  0.97163475  0.15314550  0.40288700  1
  O  O2482  1  0.97163475  0.15314550  0.65288700  1
  O  O2483  1  0.97163475  0.15314550  0.90288700  1
  O  O2484  1  0.97163475  0.40314550  0.15288700  1
  O  O2485  1  0.97163475  0.40314550  0.40288700  1
  O  O2486  1  0.97163475  0.40314550  0.65288700  1
  O  O2487  1  0.97163475  0.40314550  0.90288700  1
  O  O2488  1  0.97163475  0.65314550  0.15288700  1
  O  O2489  1  0.97163475  0.65314550  0.40288700  1
  O  O2490  1  0.97163475  0.65314550  0.65288700  1
  O  O2491  1  0.97163475  0.65314550  0.90288700  1
  O  O2492  1  0.97163475  0.90314550  0.15288700  1
  O  O2493  1  0.97163475  0.90314550  0.40288700  1
  O  O2494  1  0.97163475  0.90314550  0.65288700  1
  O  O2495  1  0.97163475  0.90314550  0.90288700  1
  O  O2496  1  0.22185450  0.09711300  0.09663475  1
  O  O2497  1  0.22185450  0.09711300  0.34663475  1
  O  O2498  1  0.22185450  0.09711300  0.59663475  1
  O  O2499  1  0.22185450  0.09711300  0.84663475  1
  O  O2500  1  0.22185450  0.34711300  0.09663475  1
  O  O2501  1  0.22185450  0.34711300  0.34663475  1
  O  O2502  1  0.22185450  0.34711300  0.59663475  1
  O  O2503  1  0.22185450  0.34711300  0.84663475  1
  O  O2504  1  0.22185450  0.59711300  0.09663475  1
  O  O2505  1  0.22185450  0.59711300  0.34663475  1
  O  O2506  1  0.22185450  0.59711300  0.59663475  1
  O  O2507  1  0.22185450  0.59711300  0.84663475  1
  O  O2508  1  0.22185450  0.84711300  0.09663475  1
  O  O2509  1  0.22185450  0.84711300  0.34663475  1
  O  O2510  1  0.22185450  0.84711300  0.59663475  1
  O  O2511  1  0.22185450  0.84711300  0.84663475  1
  O  O2512  1  0.47185450  0.09711300  0.09663475  1
  O  O2513  1  0.47185450  0.09711300  0.34663475  1
  O  O2514  1  0.47185450  0.09711300  0.59663475  1
  O  O2515  1  0.47185450  0.09711300  0.84663475  1
  O  O2516  1  0.47185450  0.34711300  0.09663475  1
  O  O2517  1  0.47185450  0.34711300  0.34663475  1
  O  O2518  1  0.47185450  0.34711300  0.59663475  1
  O  O2519  1  0.47185450  0.34711300  0.84663475  1
  O  O2520  1  0.47185450  0.59711300  0.09663475  1
  O  O2521  1  0.47185450  0.59711300  0.34663475  1
  O  O2522  1  0.47185450  0.59711300  0.59663475  1
  O  O2523  1  0.47185450  0.59711300  0.84663475  1
  O  O2524  1  0.47185450  0.84711300  0.09663475  1
  O  O2525  1  0.47185450  0.84711300  0.34663475  1
  O  O2526  1  0.47185450  0.84711300  0.59663475  1
  O  O2527  1  0.47185450  0.84711300  0.84663475  1
  O  O2528  1  0.72185450  0.09711300  0.09663475  1
  O  O2529  1  0.72185450  0.09711300  0.34663475  1
  O  O2530  1  0.72185450  0.09711300  0.59663475  1
  O  O2531  1  0.72185450  0.09711300  0.84663475  1
  O  O2532  1  0.72185450  0.34711300  0.09663475  1
  O  O2533  1  0.72185450  0.34711300  0.34663475  1
  O  O2534  1  0.72185450  0.34711300  0.59663475  1
  O  O2535  1  0.72185450  0.34711300  0.84663475  1
  O  O2536  1  0.72185450  0.59711300  0.09663475  1
  O  O2537  1  0.72185450  0.59711300  0.34663475  1
  O  O2538  1  0.72185450  0.59711300  0.59663475  1
  O  O2539  1  0.72185450  0.59711300  0.84663475  1
  O  O2540  1  0.72185450  0.84711300  0.09663475  1
  O  O2541  1  0.72185450  0.84711300  0.34663475  1
  O  O2542  1  0.72185450  0.84711300  0.59663475  1
  O  O2543  1  0.72185450  0.84711300  0.84663475  1
  O  O2544  1  0.97185450  0.09711300  0.09663475  1
  O  O2545  1  0.97185450  0.09711300  0.34663475  1
  O  O2546  1  0.97185450  0.09711300  0.59663475  1
  O  O2547  1  0.97185450  0.09711300  0.84663475  1
  O  O2548  1  0.97185450  0.34711300  0.09663475  1
  O  O2549  1  0.97185450  0.34711300  0.34663475  1
  O  O2550  1  0.97185450  0.34711300  0.59663475  1
  O  O2551  1  0.97185450  0.34711300  0.84663475  1
  O  O2552  1  0.97185450  0.59711300  0.09663475  1
  O  O2553  1  0.97185450  0.59711300  0.34663475  1
  O  O2554  1  0.97185450  0.59711300  0.59663475  1
  O  O2555  1  0.97185450  0.59711300  0.84663475  1
  O  O2556  1  0.97185450  0.84711300  0.09663475  1
  O  O2557  1  0.97185450  0.84711300  0.34663475  1
  O  O2558  1  0.97185450  0.84711300  0.59663475  1
  O  O2559  1  0.97185450  0.84711300  0.84663475  1
  O  O2560  1  0.02814550  0.22211300  0.02836525  1
  O  O2561  1  0.02814550  0.22211300  0.27836525  1
  O  O2562  1  0.02814550  0.22211300  0.52836525  1
  O  O2563  1  0.02814550  0.22211300  0.77836525  1
  O  O2564  1  0.02814550  0.47211300  0.02836525  1
  O  O2565  1  0.02814550  0.47211300  0.27836525  1
  O  O2566  1  0.02814550  0.47211300  0.52836525  1
  O  O2567  1  0.02814550  0.47211300  0.77836525  1
  O  O2568  1  0.02814550  0.72211300  0.02836525  1
  O  O2569  1  0.02814550  0.72211300  0.27836525  1
  O  O2570  1  0.02814550  0.72211300  0.52836525  1
  O  O2571  1  0.02814550  0.72211300  0.77836525  1
  O  O2572  1  0.02814550  0.97211300  0.02836525  1
  O  O2573  1  0.02814550  0.97211300  0.27836525  1
  O  O2574  1  0.02814550  0.97211300  0.52836525  1
  O  O2575  1  0.02814550  0.97211300  0.77836525  1
  O  O2576  1  0.27814550  0.22211300  0.02836525  1
  O  O2577  1  0.27814550  0.22211300  0.27836525  1
  O  O2578  1  0.27814550  0.22211300  0.52836525  1
  O  O2579  1  0.27814550  0.22211300  0.77836525  1
  O  O2580  1  0.27814550  0.47211300  0.02836525  1
  O  O2581  1  0.27814550  0.47211300  0.27836525  1
  O  O2582  1  0.27814550  0.47211300  0.52836525  1
  O  O2583  1  0.27814550  0.47211300  0.77836525  1
  O  O2584  1  0.27814550  0.72211300  0.02836525  1
  O  O2585  1  0.27814550  0.72211300  0.27836525  1
  O  O2586  1  0.27814550  0.72211300  0.52836525  1
  O  O2587  1  0.27814550  0.72211300  0.77836525  1
  O  O2588  1  0.27814550  0.97211300  0.02836525  1
  O  O2589  1  0.27814550  0.97211300  0.27836525  1
  O  O2590  1  0.27814550  0.97211300  0.52836525  1
  O  O2591  1  0.27814550  0.97211300  0.77836525  1
  O  O2592  1  0.52814550  0.22211300  0.02836525  1
  O  O2593  1  0.52814550  0.22211300  0.27836525  1
  O  O2594  1  0.52814550  0.22211300  0.52836525  1
  O  O2595  1  0.52814550  0.22211300  0.77836525  1
  O  O2596  1  0.52814550  0.47211300  0.02836525  1
  O  O2597  1  0.52814550  0.47211300  0.27836525  1
  O  O2598  1  0.52814550  0.47211300  0.52836525  1
  O  O2599  1  0.52814550  0.47211300  0.77836525  1
  O  O2600  1  0.52814550  0.72211300  0.02836525  1
  O  O2601  1  0.52814550  0.72211300  0.27836525  1
  O  O2602  1  0.52814550  0.72211300  0.52836525  1
  O  O2603  1  0.52814550  0.72211300  0.77836525  1
  O  O2604  1  0.52814550  0.97211300  0.02836525  1
  O  O2605  1  0.52814550  0.97211300  0.27836525  1
  O  O2606  1  0.52814550  0.97211300  0.52836525  1
  O  O2607  1  0.52814550  0.97211300  0.77836525  1
  O  O2608  1  0.77814550  0.22211300  0.02836525  1
  O  O2609  1  0.77814550  0.22211300  0.27836525  1
  O  O2610  1  0.77814550  0.22211300  0.52836525  1
  O  O2611  1  0.77814550  0.22211300  0.77836525  1
  O  O2612  1  0.77814550  0.47211300  0.02836525  1
  O  O2613  1  0.77814550  0.47211300  0.27836525  1
  O  O2614  1  0.77814550  0.47211300  0.52836525  1
  O  O2615  1  0.77814550  0.47211300  0.77836525  1
  O  O2616  1  0.77814550  0.72211300  0.02836525  1
  O  O2617  1  0.77814550  0.72211300  0.27836525  1
  O  O2618  1  0.77814550  0.72211300  0.52836525  1
  O  O2619  1  0.77814550  0.72211300  0.77836525  1
  O  O2620  1  0.77814550  0.97211300  0.02836525  1
  O  O2621  1  0.77814550  0.97211300  0.27836525  1
  O  O2622  1  0.77814550  0.97211300  0.52836525  1
  O  O2623  1  0.77814550  0.97211300  0.77836525  1
  O  O2624  1  0.02836525  0.02814550  0.22211300  1
  O  O2625  1  0.02836525  0.02814550  0.47211300  1
  O  O2626  1  0.02836525  0.02814550  0.72211300  1
  O  O2627  1  0.02836525  0.02814550  0.97211300  1
  O  O2628  1  0.02836525  0.27814550  0.22211300  1
  O  O2629  1  0.02836525  0.27814550  0.47211300  1
  O  O2630  1  0.02836525  0.27814550  0.72211300  1
  O  O2631  1  0.02836525  0.27814550  0.97211300  1
  O  O2632  1  0.02836525  0.52814550  0.22211300  1
  O  O2633  1  0.02836525  0.52814550  0.47211300  1
  O  O2634  1  0.02836525  0.52814550  0.72211300  1
  O  O2635  1  0.02836525  0.52814550  0.97211300  1
  O  O2636  1  0.02836525  0.77814550  0.22211300  1
  O  O2637  1  0.02836525  0.77814550  0.47211300  1
  O  O2638  1  0.02836525  0.77814550  0.72211300  1
  O  O2639  1  0.02836525  0.77814550  0.97211300  1
  O  O2640  1  0.27836525  0.02814550  0.22211300  1
  O  O2641  1  0.27836525  0.02814550  0.47211300  1
  O  O2642  1  0.27836525  0.02814550  0.72211300  1
  O  O2643  1  0.27836525  0.02814550  0.97211300  1
  O  O2644  1  0.27836525  0.27814550  0.22211300  1
  O  O2645  1  0.27836525  0.27814550  0.47211300  1
  O  O2646  1  0.27836525  0.27814550  0.72211300  1
  O  O2647  1  0.27836525  0.27814550  0.97211300  1
  O  O2648  1  0.27836525  0.52814550  0.22211300  1
  O  O2649  1  0.27836525  0.52814550  0.47211300  1
  O  O2650  1  0.27836525  0.52814550  0.72211300  1
  O  O2651  1  0.27836525  0.52814550  0.97211300  1
  O  O2652  1  0.27836525  0.77814550  0.22211300  1
  O  O2653  1  0.27836525  0.77814550  0.47211300  1
  O  O2654  1  0.27836525  0.77814550  0.72211300  1
  O  O2655  1  0.27836525  0.77814550  0.97211300  1
  O  O2656  1  0.52836525  0.02814550  0.22211300  1
  O  O2657  1  0.52836525  0.02814550  0.47211300  1
  O  O2658  1  0.52836525  0.02814550  0.72211300  1
  O  O2659  1  0.52836525  0.02814550  0.97211300  1
  O  O2660  1  0.52836525  0.27814550  0.22211300  1
  O  O2661  1  0.52836525  0.27814550  0.47211300  1
  O  O2662  1  0.52836525  0.27814550  0.72211300  1
  O  O2663  1  0.52836525  0.27814550  0.97211300  1
  O  O2664  1  0.52836525  0.52814550  0.22211300  1
  O  O2665  1  0.52836525  0.52814550  0.47211300  1
  O  O2666  1  0.52836525  0.52814550  0.72211300  1
  O  O2667  1  0.52836525  0.52814550  0.97211300  1
  O  O2668  1  0.52836525  0.77814550  0.22211300  1
  O  O2669  1  0.52836525  0.77814550  0.47211300  1
  O  O2670  1  0.52836525  0.77814550  0.72211300  1
  O  O2671  1  0.52836525  0.77814550  0.97211300  1
  O  O2672  1  0.77836525  0.02814550  0.22211300  1
  O  O2673  1  0.77836525  0.02814550  0.47211300  1
  O  O2674  1  0.77836525  0.02814550  0.72211300  1
  O  O2675  1  0.77836525  0.02814550  0.97211300  1
  O  O2676  1  0.77836525  0.27814550  0.22211300  1
  O  O2677  1  0.77836525  0.27814550  0.47211300  1
  O  O2678  1  0.77836525  0.27814550  0.72211300  1
  O  O2679  1  0.77836525  0.27814550  0.97211300  1
  O  O2680  1  0.77836525  0.52814550  0.22211300  1
  O  O2681  1  0.77836525  0.52814550  0.47211300  1
  O  O2682  1  0.77836525  0.52814550  0.72211300  1
  O  O2683  1  0.77836525  0.52814550  0.97211300  1
  O  O2684  1  0.77836525  0.77814550  0.22211300  1
  O  O2685  1  0.77836525  0.77814550  0.47211300  1
  O  O2686  1  0.77836525  0.77814550  0.72211300  1
  O  O2687  1  0.77836525  0.77814550  0.97211300  1
  O  O2688  1  0.02803925  0.09696075  0.15303925  1
  O  O2689  1  0.02803925  0.09696075  0.40303925  1
  O  O2690  1  0.02803925  0.09696075  0.65303925  1
  O  O2691  1  0.02803925  0.09696075  0.90303925  1
  O  O2692  1  0.02803925  0.34696075  0.15303925  1
  O  O2693  1  0.02803925  0.34696075  0.40303925  1
  O  O2694  1  0.02803925  0.34696075  0.65303925  1
  O  O2695  1  0.02803925  0.34696075  0.90303925  1
  O  O2696  1  0.02803925  0.59696075  0.15303925  1
  O  O2697  1  0.02803925  0.59696075  0.40303925  1
  O  O2698  1  0.02803925  0.59696075  0.65303925  1
  O  O2699  1  0.02803925  0.59696075  0.90303925  1
  O  O2700  1  0.02803925  0.84696075  0.15303925  1
  O  O2701  1  0.02803925  0.84696075  0.40303925  1
  O  O2702  1  0.02803925  0.84696075  0.65303925  1
  O  O2703  1  0.02803925  0.84696075  0.90303925  1
  O  O2704  1  0.27803925  0.09696075  0.15303925  1
  O  O2705  1  0.27803925  0.09696075  0.40303925  1
  O  O2706  1  0.27803925  0.09696075  0.65303925  1
  O  O2707  1  0.27803925  0.09696075  0.90303925  1
  O  O2708  1  0.27803925  0.34696075  0.15303925  1
  O  O2709  1  0.27803925  0.34696075  0.40303925  1
  O  O2710  1  0.27803925  0.34696075  0.65303925  1
  O  O2711  1  0.27803925  0.34696075  0.90303925  1
  O  O2712  1  0.27803925  0.59696075  0.15303925  1
  O  O2713  1  0.27803925  0.59696075  0.40303925  1
  O  O2714  1  0.27803925  0.59696075  0.65303925  1
  O  O2715  1  0.27803925  0.59696075  0.90303925  1
  O  O2716  1  0.27803925  0.84696075  0.15303925  1
  O  O2717  1  0.27803925  0.84696075  0.40303925  1
  O  O2718  1  0.27803925  0.84696075  0.65303925  1
  O  O2719  1  0.27803925  0.84696075  0.90303925  1
  O  O2720  1  0.52803925  0.09696075  0.15303925  1
  O  O2721  1  0.52803925  0.09696075  0.40303925  1
  O  O2722  1  0.52803925  0.09696075  0.65303925  1
  O  O2723  1  0.52803925  0.09696075  0.90303925  1
  O  O2724  1  0.52803925  0.34696075  0.15303925  1
  O  O2725  1  0.52803925  0.34696075  0.40303925  1
  O  O2726  1  0.52803925  0.34696075  0.65303925  1
  O  O2727  1  0.52803925  0.34696075  0.90303925  1
  O  O2728  1  0.52803925  0.59696075  0.15303925  1
  O  O2729  1  0.52803925  0.59696075  0.40303925  1
  O  O2730  1  0.52803925  0.59696075  0.65303925  1
  O  O2731  1  0.52803925  0.59696075  0.90303925  1
  O  O2732  1  0.52803925  0.84696075  0.15303925  1
  O  O2733  1  0.52803925  0.84696075  0.40303925  1
  O  O2734  1  0.52803925  0.84696075  0.65303925  1
  O  O2735  1  0.52803925  0.84696075  0.90303925  1
  O  O2736  1  0.77803925  0.09696075  0.15303925  1
  O  O2737  1  0.77803925  0.09696075  0.40303925  1
  O  O2738  1  0.77803925  0.09696075  0.65303925  1
  O  O2739  1  0.77803925  0.09696075  0.90303925  1
  O  O2740  1  0.77803925  0.34696075  0.15303925  1
  O  O2741  1  0.77803925  0.34696075  0.40303925  1
  O  O2742  1  0.77803925  0.34696075  0.65303925  1
  O  O2743  1  0.77803925  0.34696075  0.90303925  1
  O  O2744  1  0.77803925  0.59696075  0.15303925  1
  O  O2745  1  0.77803925  0.59696075  0.40303925  1
  O  O2746  1  0.77803925  0.59696075  0.65303925  1
  O  O2747  1  0.77803925  0.59696075  0.90303925  1
  O  O2748  1  0.77803925  0.84696075  0.15303925  1
  O  O2749  1  0.77803925  0.84696075  0.40303925  1
  O  O2750  1  0.77803925  0.84696075  0.65303925  1
  O  O2751  1  0.77803925  0.84696075  0.90303925  1
  O  O2752  1  0.03461300  0.21564550  0.15913475  1
  O  O2753  1  0.03461300  0.21564550  0.40913475  1
  O  O2754  1  0.03461300  0.21564550  0.65913475  1
  O  O2755  1  0.03461300  0.21564550  0.90913475  1
  O  O2756  1  0.03461300  0.46564550  0.15913475  1
  O  O2757  1  0.03461300  0.46564550  0.40913475  1
  O  O2758  1  0.03461300  0.46564550  0.65913475  1
  O  O2759  1  0.03461300  0.46564550  0.90913475  1
  O  O2760  1  0.03461300  0.71564550  0.15913475  1
  O  O2761  1  0.03461300  0.71564550  0.40913475  1
  O  O2762  1  0.03461300  0.71564550  0.65913475  1
  O  O2763  1  0.03461300  0.71564550  0.90913475  1
  O  O2764  1  0.03461300  0.96564550  0.15913475  1
  O  O2765  1  0.03461300  0.96564550  0.40913475  1
  O  O2766  1  0.03461300  0.96564550  0.65913475  1
  O  O2767  1  0.03461300  0.96564550  0.90913475  1
  O  O2768  1  0.28461300  0.21564550  0.15913475  1
  O  O2769  1  0.28461300  0.21564550  0.40913475  1
  O  O2770  1  0.28461300  0.21564550  0.65913475  1
  O  O2771  1  0.28461300  0.21564550  0.90913475  1
  O  O2772  1  0.28461300  0.46564550  0.15913475  1
  O  O2773  1  0.28461300  0.46564550  0.40913475  1
  O  O2774  1  0.28461300  0.46564550  0.65913475  1
  O  O2775  1  0.28461300  0.46564550  0.90913475  1
  O  O2776  1  0.28461300  0.71564550  0.15913475  1
  O  O2777  1  0.28461300  0.71564550  0.40913475  1
  O  O2778  1  0.28461300  0.71564550  0.65913475  1
  O  O2779  1  0.28461300  0.71564550  0.90913475  1
  O  O2780  1  0.28461300  0.96564550  0.15913475  1
  O  O2781  1  0.28461300  0.96564550  0.40913475  1
  O  O2782  1  0.28461300  0.96564550  0.65913475  1
  O  O2783  1  0.28461300  0.96564550  0.90913475  1
  O  O2784  1  0.53461300  0.21564550  0.15913475  1
  O  O2785  1  0.53461300  0.21564550  0.40913475  1
  O  O2786  1  0.53461300  0.21564550  0.65913475  1
  O  O2787  1  0.53461300  0.21564550  0.90913475  1
  O  O2788  1  0.53461300  0.46564550  0.15913475  1
  O  O2789  1  0.53461300  0.46564550  0.40913475  1
  O  O2790  1  0.53461300  0.46564550  0.65913475  1
  O  O2791  1  0.53461300  0.46564550  0.90913475  1
  O  O2792  1  0.53461300  0.71564550  0.15913475  1
  O  O2793  1  0.53461300  0.71564550  0.40913475  1
  O  O2794  1  0.53461300  0.71564550  0.65913475  1
  O  O2795  1  0.53461300  0.71564550  0.90913475  1
  O  O2796  1  0.53461300  0.96564550  0.15913475  1
  O  O2797  1  0.53461300  0.96564550  0.40913475  1
  O  O2798  1  0.53461300  0.96564550  0.65913475  1
  O  O2799  1  0.53461300  0.96564550  0.90913475  1
  O  O2800  1  0.78461300  0.21564550  0.15913475  1
  O  O2801  1  0.78461300  0.21564550  0.40913475  1
  O  O2802  1  0.78461300  0.21564550  0.65913475  1
  O  O2803  1  0.78461300  0.21564550  0.90913475  1
  O  O2804  1  0.78461300  0.46564550  0.15913475  1
  O  O2805  1  0.78461300  0.46564550  0.40913475  1
  O  O2806  1  0.78461300  0.46564550  0.65913475  1
  O  O2807  1  0.78461300  0.46564550  0.90913475  1
  O  O2808  1  0.78461300  0.71564550  0.15913475  1
  O  O2809  1  0.78461300  0.71564550  0.40913475  1
  O  O2810  1  0.78461300  0.71564550  0.65913475  1
  O  O2811  1  0.78461300  0.71564550  0.90913475  1
  O  O2812  1  0.78461300  0.96564550  0.15913475  1
  O  O2813  1  0.78461300  0.96564550  0.40913475  1
  O  O2814  1  0.78461300  0.96564550  0.65913475  1
  O  O2815  1  0.78461300  0.96564550  0.90913475  1
  O  O2816  1  0.02788700  0.15336525  0.09685450  1
  O  O2817  1  0.02788700  0.15336525  0.34685450  1
  O  O2818  1  0.02788700  0.15336525  0.59685450  1
  O  O2819  1  0.02788700  0.15336525  0.84685450  1
  O  O2820  1  0.02788700  0.40336525  0.09685450  1
  O  O2821  1  0.02788700  0.40336525  0.34685450  1
  O  O2822  1  0.02788700  0.40336525  0.59685450  1
  O  O2823  1  0.02788700  0.40336525  0.84685450  1
  O  O2824  1  0.02788700  0.65336525  0.09685450  1
  O  O2825  1  0.02788700  0.65336525  0.34685450  1
  O  O2826  1  0.02788700  0.65336525  0.59685450  1
  O  O2827  1  0.02788700  0.65336525  0.84685450  1
  O  O2828  1  0.02788700  0.90336525  0.09685450  1
  O  O2829  1  0.02788700  0.90336525  0.34685450  1
  O  O2830  1  0.02788700  0.90336525  0.59685450  1
  O  O2831  1  0.02788700  0.90336525  0.84685450  1
  O  O2832  1  0.27788700  0.15336525  0.09685450  1
  O  O2833  1  0.27788700  0.15336525  0.34685450  1
  O  O2834  1  0.27788700  0.15336525  0.59685450  1
  O  O2835  1  0.27788700  0.15336525  0.84685450  1
  O  O2836  1  0.27788700  0.40336525  0.09685450  1
  O  O2837  1  0.27788700  0.40336525  0.34685450  1
  O  O2838  1  0.27788700  0.40336525  0.59685450  1
  O  O2839  1  0.27788700  0.40336525  0.84685450  1
  O  O2840  1  0.27788700  0.65336525  0.09685450  1
  O  O2841  1  0.27788700  0.65336525  0.34685450  1
  O  O2842  1  0.27788700  0.65336525  0.59685450  1
  O  O2843  1  0.27788700  0.65336525  0.84685450  1
  O  O2844  1  0.27788700  0.90336525  0.09685450  1
  O  O2845  1  0.27788700  0.90336525  0.34685450  1
  O  O2846  1  0.27788700  0.90336525  0.59685450  1
  O  O2847  1  0.27788700  0.90336525  0.84685450  1
  O  O2848  1  0.52788700  0.15336525  0.09685450  1
  O  O2849  1  0.52788700  0.15336525  0.34685450  1
  O  O2850  1  0.52788700  0.15336525  0.59685450  1
  O  O2851  1  0.52788700  0.15336525  0.84685450  1
  O  O2852  1  0.52788700  0.40336525  0.09685450  1
  O  O2853  1  0.52788700  0.40336525  0.34685450  1
  O  O2854  1  0.52788700  0.40336525  0.59685450  1
  O  O2855  1  0.52788700  0.40336525  0.84685450  1
  O  O2856  1  0.52788700  0.65336525  0.09685450  1
  O  O2857  1  0.52788700  0.65336525  0.34685450  1
  O  O2858  1  0.52788700  0.65336525  0.59685450  1
  O  O2859  1  0.52788700  0.65336525  0.84685450  1
  O  O2860  1  0.52788700  0.90336525  0.09685450  1
  O  O2861  1  0.52788700  0.90336525  0.34685450  1
  O  O2862  1  0.52788700  0.90336525  0.59685450  1
  O  O2863  1  0.52788700  0.90336525  0.84685450  1
  O  O2864  1  0.77788700  0.15336525  0.09685450  1
  O  O2865  1  0.77788700  0.15336525  0.34685450  1
  O  O2866  1  0.77788700  0.15336525  0.59685450  1
  O  O2867  1  0.77788700  0.15336525  0.84685450  1
  O  O2868  1  0.77788700  0.40336525  0.09685450  1
  O  O2869  1  0.77788700  0.40336525  0.34685450  1
  O  O2870  1  0.77788700  0.40336525  0.59685450  1
  O  O2871  1  0.77788700  0.40336525  0.84685450  1
  O  O2872  1  0.77788700  0.65336525  0.09685450  1
  O  O2873  1  0.77788700  0.65336525  0.34685450  1
  O  O2874  1  0.77788700  0.65336525  0.59685450  1
  O  O2875  1  0.77788700  0.65336525  0.84685450  1
  O  O2876  1  0.77788700  0.90336525  0.09685450  1
  O  O2877  1  0.77788700  0.90336525  0.34685450  1
  O  O2878  1  0.77788700  0.90336525  0.59685450  1
  O  O2879  1  0.77788700  0.90336525  0.84685450  1
  O  O2880  1  0.03446075  0.15946075  0.21553925  1
  O  O2881  1  0.03446075  0.15946075  0.46553925  1
  O  O2882  1  0.03446075  0.15946075  0.71553925  1
  O  O2883  1  0.03446075  0.15946075  0.96553925  1
  O  O2884  1  0.03446075  0.40946075  0.21553925  1
  O  O2885  1  0.03446075  0.40946075  0.46553925  1
  O  O2886  1  0.03446075  0.40946075  0.71553925  1
  O  O2887  1  0.03446075  0.40946075  0.96553925  1
  O  O2888  1  0.03446075  0.65946075  0.21553925  1
  O  O2889  1  0.03446075  0.65946075  0.46553925  1
  O  O2890  1  0.03446075  0.65946075  0.71553925  1
  O  O2891  1  0.03446075  0.65946075  0.96553925  1
  O  O2892  1  0.03446075  0.90946075  0.21553925  1
  O  O2893  1  0.03446075  0.90946075  0.46553925  1
  O  O2894  1  0.03446075  0.90946075  0.71553925  1
  O  O2895  1  0.03446075  0.90946075  0.96553925  1
  O  O2896  1  0.28446075  0.15946075  0.21553925  1
  O  O2897  1  0.28446075  0.15946075  0.46553925  1
  O  O2898  1  0.28446075  0.15946075  0.71553925  1
  O  O2899  1  0.28446075  0.15946075  0.96553925  1
  O  O2900  1  0.28446075  0.40946075  0.21553925  1
  O  O2901  1  0.28446075  0.40946075  0.46553925  1
  O  O2902  1  0.28446075  0.40946075  0.71553925  1
  O  O2903  1  0.28446075  0.40946075  0.96553925  1
  O  O2904  1  0.28446075  0.65946075  0.21553925  1
  O  O2905  1  0.28446075  0.65946075  0.46553925  1
  O  O2906  1  0.28446075  0.65946075  0.71553925  1
  O  O2907  1  0.28446075  0.65946075  0.96553925  1
  O  O2908  1  0.28446075  0.90946075  0.21553925  1
  O  O2909  1  0.28446075  0.90946075  0.46553925  1
  O  O2910  1  0.28446075  0.90946075  0.71553925  1
  O  O2911  1  0.28446075  0.90946075  0.96553925  1
  O  O2912  1  0.53446075  0.15946075  0.21553925  1
  O  O2913  1  0.53446075  0.15946075  0.46553925  1
  O  O2914  1  0.53446075  0.15946075  0.71553925  1
  O  O2915  1  0.53446075  0.15946075  0.96553925  1
  O  O2916  1  0.53446075  0.40946075  0.21553925  1
  O  O2917  1  0.53446075  0.40946075  0.46553925  1
  O  O2918  1  0.53446075  0.40946075  0.71553925  1
  O  O2919  1  0.53446075  0.40946075  0.96553925  1
  O  O2920  1  0.53446075  0.65946075  0.21553925  1
  O  O2921  1  0.53446075  0.65946075  0.46553925  1
  O  O2922  1  0.53446075  0.65946075  0.71553925  1
  O  O2923  1  0.53446075  0.65946075  0.96553925  1
  O  O2924  1  0.53446075  0.90946075  0.21553925  1
  O  O2925  1  0.53446075  0.90946075  0.46553925  1
  O  O2926  1  0.53446075  0.90946075  0.71553925  1
  O  O2927  1  0.53446075  0.90946075  0.96553925  1
  O  O2928  1  0.78446075  0.15946075  0.21553925  1
  O  O2929  1  0.78446075  0.15946075  0.46553925  1
  O  O2930  1  0.78446075  0.15946075  0.71553925  1
  O  O2931  1  0.78446075  0.15946075  0.96553925  1
  O  O2932  1  0.78446075  0.40946075  0.21553925  1
  O  O2933  1  0.78446075  0.40946075  0.46553925  1
  O  O2934  1  0.78446075  0.40946075  0.71553925  1
  O  O2935  1  0.78446075  0.40946075  0.96553925  1
  O  O2936  1  0.78446075  0.65946075  0.21553925  1
  O  O2937  1  0.78446075  0.65946075  0.46553925  1
  O  O2938  1  0.78446075  0.65946075  0.71553925  1
  O  O2939  1  0.78446075  0.65946075  0.96553925  1
  O  O2940  1  0.78446075  0.90946075  0.21553925  1
  O  O2941  1  0.78446075  0.90946075  0.46553925  1
  O  O2942  1  0.78446075  0.90946075  0.71553925  1
  O  O2943  1  0.78446075  0.90946075  0.96553925  1
  O  O2944  1  0.03413475  0.09038700  0.03435450  1
  O  O2945  1  0.03413475  0.09038700  0.28435450  1
  O  O2946  1  0.03413475  0.09038700  0.53435450  1
  O  O2947  1  0.03413475  0.09038700  0.78435450  1
  O  O2948  1  0.03413475  0.34038700  0.03435450  1
  O  O2949  1  0.03413475  0.34038700  0.28435450  1
  O  O2950  1  0.03413475  0.34038700  0.53435450  1
  O  O2951  1  0.03413475  0.34038700  0.78435450  1
  O  O2952  1  0.03413475  0.59038700  0.03435450  1
  O  O2953  1  0.03413475  0.59038700  0.28435450  1
  O  O2954  1  0.03413475  0.59038700  0.53435450  1
  O  O2955  1  0.03413475  0.59038700  0.78435450  1
  O  O2956  1  0.03413475  0.84038700  0.03435450  1
  O  O2957  1  0.03413475  0.84038700  0.28435450  1
  O  O2958  1  0.03413475  0.84038700  0.53435450  1
  O  O2959  1  0.03413475  0.84038700  0.78435450  1
  O  O2960  1  0.28413475  0.09038700  0.03435450  1
  O  O2961  1  0.28413475  0.09038700  0.28435450  1
  O  O2962  1  0.28413475  0.09038700  0.53435450  1
  O  O2963  1  0.28413475  0.09038700  0.78435450  1
  O  O2964  1  0.28413475  0.34038700  0.03435450  1
  O  O2965  1  0.28413475  0.34038700  0.28435450  1
  O  O2966  1  0.28413475  0.34038700  0.53435450  1
  O  O2967  1  0.28413475  0.34038700  0.78435450  1
  O  O2968  1  0.28413475  0.59038700  0.03435450  1
  O  O2969  1  0.28413475  0.59038700  0.28435450  1
  O  O2970  1  0.28413475  0.59038700  0.53435450  1
  O  O2971  1  0.28413475  0.59038700  0.78435450  1
  O  O2972  1  0.28413475  0.84038700  0.03435450  1
  O  O2973  1  0.28413475  0.84038700  0.28435450  1
  O  O2974  1  0.28413475  0.84038700  0.53435450  1
  O  O2975  1  0.28413475  0.84038700  0.78435450  1
  O  O2976  1  0.53413475  0.09038700  0.03435450  1
  O  O2977  1  0.53413475  0.09038700  0.28435450  1
  O  O2978  1  0.53413475  0.09038700  0.53435450  1
  O  O2979  1  0.53413475  0.09038700  0.78435450  1
  O  O2980  1  0.53413475  0.34038700  0.03435450  1
  O  O2981  1  0.53413475  0.34038700  0.28435450  1
  O  O2982  1  0.53413475  0.34038700  0.53435450  1
  O  O2983  1  0.53413475  0.34038700  0.78435450  1
  O  O2984  1  0.53413475  0.59038700  0.03435450  1
  O  O2985  1  0.53413475  0.59038700  0.28435450  1
  O  O2986  1  0.53413475  0.59038700  0.53435450  1
  O  O2987  1  0.53413475  0.59038700  0.78435450  1
  O  O2988  1  0.53413475  0.84038700  0.03435450  1
  O  O2989  1  0.53413475  0.84038700  0.28435450  1
  O  O2990  1  0.53413475  0.84038700  0.53435450  1
  O  O2991  1  0.53413475  0.84038700  0.78435450  1
  O  O2992  1  0.78413475  0.09038700  0.03435450  1
  O  O2993  1  0.78413475  0.09038700  0.28435450  1
  O  O2994  1  0.78413475  0.09038700  0.53435450  1
  O  O2995  1  0.78413475  0.09038700  0.78435450  1
  O  O2996  1  0.78413475  0.34038700  0.03435450  1
  O  O2997  1  0.78413475  0.34038700  0.28435450  1
  O  O2998  1  0.78413475  0.34038700  0.53435450  1
  O  O2999  1  0.78413475  0.34038700  0.78435450  1
  O  O3000  1  0.78413475  0.59038700  0.03435450  1
  O  O3001  1  0.78413475  0.59038700  0.28435450  1
  O  O3002  1  0.78413475  0.59038700  0.53435450  1
  O  O3003  1  0.78413475  0.59038700  0.78435450  1
  O  O3004  1  0.78413475  0.84038700  0.03435450  1
  O  O3005  1  0.78413475  0.84038700  0.28435450  1
  O  O3006  1  0.78413475  0.84038700  0.53435450  1
  O  O3007  1  0.78413475  0.84038700  0.78435450  1
  O  O3008  1  0.03435450  0.03413475  0.09038700  1
  O  O3009  1  0.03435450  0.03413475  0.34038700  1
  O  O3010  1  0.03435450  0.03413475  0.59038700  1
  O  O3011  1  0.03435450  0.03413475  0.84038700  1
  O  O3012  1  0.03435450  0.28413475  0.09038700  1
  O  O3013  1  0.03435450  0.28413475  0.34038700  1
  O  O3014  1  0.03435450  0.28413475  0.59038700  1
  O  O3015  1  0.03435450  0.28413475  0.84038700  1
  O  O3016  1  0.03435450  0.53413475  0.09038700  1
  O  O3017  1  0.03435450  0.53413475  0.34038700  1
  O  O3018  1  0.03435450  0.53413475  0.59038700  1
  O  O3019  1  0.03435450  0.53413475  0.84038700  1
  O  O3020  1  0.03435450  0.78413475  0.09038700  1
  O  O3021  1  0.03435450  0.78413475  0.34038700  1
  O  O3022  1  0.03435450  0.78413475  0.59038700  1
  O  O3023  1  0.03435450  0.78413475  0.84038700  1
  O  O3024  1  0.28435450  0.03413475  0.09038700  1
  O  O3025  1  0.28435450  0.03413475  0.34038700  1
  O  O3026  1  0.28435450  0.03413475  0.59038700  1
  O  O3027  1  0.28435450  0.03413475  0.84038700  1
  O  O3028  1  0.28435450  0.28413475  0.09038700  1
  O  O3029  1  0.28435450  0.28413475  0.34038700  1
  O  O3030  1  0.28435450  0.28413475  0.59038700  1
  O  O3031  1  0.28435450  0.28413475  0.84038700  1
  O  O3032  1  0.28435450  0.53413475  0.09038700  1
  O  O3033  1  0.28435450  0.53413475  0.34038700  1
  O  O3034  1  0.28435450  0.53413475  0.59038700  1
  O  O3035  1  0.28435450  0.53413475  0.84038700  1
  O  O3036  1  0.28435450  0.78413475  0.09038700  1
  O  O3037  1  0.28435450  0.78413475  0.34038700  1
  O  O3038  1  0.28435450  0.78413475  0.59038700  1
  O  O3039  1  0.28435450  0.78413475  0.84038700  1
  O  O3040  1  0.53435450  0.03413475  0.09038700  1
  O  O3041  1  0.53435450  0.03413475  0.34038700  1
  O  O3042  1  0.53435450  0.03413475  0.59038700  1
  O  O3043  1  0.53435450  0.03413475  0.84038700  1
  O  O3044  1  0.53435450  0.28413475  0.09038700  1
  O  O3045  1  0.53435450  0.28413475  0.34038700  1
  O  O3046  1  0.53435450  0.28413475  0.59038700  1
  O  O3047  1  0.53435450  0.28413475  0.84038700  1
  O  O3048  1  0.53435450  0.53413475  0.09038700  1
  O  O3049  1  0.53435450  0.53413475  0.34038700  1
  O  O3050  1  0.53435450  0.53413475  0.59038700  1
  O  O3051  1  0.53435450  0.53413475  0.84038700  1
  O  O3052  1  0.53435450  0.78413475  0.09038700  1
  O  O3053  1  0.53435450  0.78413475  0.34038700  1
  O  O3054  1  0.53435450  0.78413475  0.59038700  1
  O  O3055  1  0.53435450  0.78413475  0.84038700  1
  O  O3056  1  0.78435450  0.03413475  0.09038700  1
  O  O3057  1  0.78435450  0.03413475  0.34038700  1
  O  O3058  1  0.78435450  0.03413475  0.59038700  1
  O  O3059  1  0.78435450  0.03413475  0.84038700  1
  O  O3060  1  0.78435450  0.28413475  0.09038700  1
  O  O3061  1  0.78435450  0.28413475  0.34038700  1
  O  O3062  1  0.78435450  0.28413475  0.59038700  1
  O  O3063  1  0.78435450  0.28413475  0.84038700  1
  O  O3064  1  0.78435450  0.53413475  0.09038700  1
  O  O3065  1  0.78435450  0.53413475  0.34038700  1
  O  O3066  1  0.78435450  0.53413475  0.59038700  1
  O  O3067  1  0.78435450  0.53413475  0.84038700  1
  O  O3068  1  0.78435450  0.78413475  0.09038700  1
  O  O3069  1  0.78435450  0.78413475  0.34038700  1
  O  O3070  1  0.78435450  0.78413475  0.59038700  1
  O  O3071  1  0.78435450  0.78413475  0.84038700  1
  O  O3072  1  0.09064550  0.21586525  0.21538700  1
  O  O3073  1  0.09064550  0.21586525  0.46538700  1
  O  O3074  1  0.09064550  0.21586525  0.71538700  1
  O  O3075  1  0.09064550  0.21586525  0.96538700  1
  O  O3076  1  0.09064550  0.46586525  0.21538700  1
  O  O3077  1  0.09064550  0.46586525  0.46538700  1
  O  O3078  1  0.09064550  0.46586525  0.71538700  1
  O  O3079  1  0.09064550  0.46586525  0.96538700  1
  O  O3080  1  0.09064550  0.71586525  0.21538700  1
  O  O3081  1  0.09064550  0.71586525  0.46538700  1
  O  O3082  1  0.09064550  0.71586525  0.71538700  1
  O  O3083  1  0.09064550  0.71586525  0.96538700  1
  O  O3084  1  0.09064550  0.96586525  0.21538700  1
  O  O3085  1  0.09064550  0.96586525  0.46538700  1
  O  O3086  1  0.09064550  0.96586525  0.71538700  1
  O  O3087  1  0.09064550  0.96586525  0.96538700  1
  O  O3088  1  0.34064550  0.21586525  0.21538700  1
  O  O3089  1  0.34064550  0.21586525  0.46538700  1
  O  O3090  1  0.34064550  0.21586525  0.71538700  1
  O  O3091  1  0.34064550  0.21586525  0.96538700  1
  O  O3092  1  0.34064550  0.46586525  0.21538700  1
  O  O3093  1  0.34064550  0.46586525  0.46538700  1
  O  O3094  1  0.34064550  0.46586525  0.71538700  1
  O  O3095  1  0.34064550  0.46586525  0.96538700  1
  O  O3096  1  0.34064550  0.71586525  0.21538700  1
  O  O3097  1  0.34064550  0.71586525  0.46538700  1
  O  O3098  1  0.34064550  0.71586525  0.71538700  1
  O  O3099  1  0.34064550  0.71586525  0.96538700  1
  O  O3100  1  0.34064550  0.96586525  0.21538700  1
  O  O3101  1  0.34064550  0.96586525  0.46538700  1
  O  O3102  1  0.34064550  0.96586525  0.71538700  1
  O  O3103  1  0.34064550  0.96586525  0.96538700  1
  O  O3104  1  0.59064550  0.21586525  0.21538700  1
  O  O3105  1  0.59064550  0.21586525  0.46538700  1
  O  O3106  1  0.59064550  0.21586525  0.71538700  1
  O  O3107  1  0.59064550  0.21586525  0.96538700  1
  O  O3108  1  0.59064550  0.46586525  0.21538700  1
  O  O3109  1  0.59064550  0.46586525  0.46538700  1
  O  O3110  1  0.59064550  0.46586525  0.71538700  1
  O  O3111  1  0.59064550  0.46586525  0.96538700  1
  O  O3112  1  0.59064550  0.71586525  0.21538700  1
  O  O3113  1  0.59064550  0.71586525  0.46538700  1
  O  O3114  1  0.59064550  0.71586525  0.71538700  1
  O  O3115  1  0.59064550  0.71586525  0.96538700  1
  O  O3116  1  0.59064550  0.96586525  0.21538700  1
  O  O3117  1  0.59064550  0.96586525  0.46538700  1
  O  O3118  1  0.59064550  0.96586525  0.71538700  1
  O  O3119  1  0.59064550  0.96586525  0.96538700  1
  O  O3120  1  0.84064550  0.21586525  0.21538700  1
  O  O3121  1  0.84064550  0.21586525  0.46538700  1
  O  O3122  1  0.84064550  0.21586525  0.71538700  1
  O  O3123  1  0.84064550  0.21586525  0.96538700  1
  O  O3124  1  0.84064550  0.46586525  0.21538700  1
  O  O3125  1  0.84064550  0.46586525  0.46538700  1
  O  O3126  1  0.84064550  0.46586525  0.71538700  1
  O  O3127  1  0.84064550  0.46586525  0.96538700  1
  O  O3128  1  0.84064550  0.71586525  0.21538700  1
  O  O3129  1  0.84064550  0.71586525  0.46538700  1
  O  O3130  1  0.84064550  0.71586525  0.71538700  1
  O  O3131  1  0.84064550  0.71586525  0.96538700  1
  O  O3132  1  0.84064550  0.96586525  0.21538700  1
  O  O3133  1  0.84064550  0.96586525  0.46538700  1
  O  O3134  1  0.84064550  0.96586525  0.71538700  1
  O  O3135  1  0.84064550  0.96586525  0.96538700  1
  O  O3136  1  0.09086525  0.15961300  0.15935450  1
  O  O3137  1  0.09086525  0.15961300  0.40935450  1
  O  O3138  1  0.09086525  0.15961300  0.65935450  1
  O  O3139  1  0.09086525  0.15961300  0.90935450  1
  O  O3140  1  0.09086525  0.40961300  0.15935450  1
  O  O3141  1  0.09086525  0.40961300  0.40935450  1
  O  O3142  1  0.09086525  0.40961300  0.65935450  1
  O  O3143  1  0.09086525  0.40961300  0.90935450  1
  O  O3144  1  0.09086525  0.65961300  0.15935450  1
  O  O3145  1  0.09086525  0.65961300  0.40935450  1
  O  O3146  1  0.09086525  0.65961300  0.65935450  1
  O  O3147  1  0.09086525  0.65961300  0.90935450  1
  O  O3148  1  0.09086525  0.90961300  0.15935450  1
  O  O3149  1  0.09086525  0.90961300  0.40935450  1
  O  O3150  1  0.09086525  0.90961300  0.65935450  1
  O  O3151  1  0.09086525  0.90961300  0.90935450  1
  O  O3152  1  0.34086525  0.15961300  0.15935450  1
  O  O3153  1  0.34086525  0.15961300  0.40935450  1
  O  O3154  1  0.34086525  0.15961300  0.65935450  1
  O  O3155  1  0.34086525  0.15961300  0.90935450  1
  O  O3156  1  0.34086525  0.40961300  0.15935450  1
  O  O3157  1  0.34086525  0.40961300  0.40935450  1
  O  O3158  1  0.34086525  0.40961300  0.65935450  1
  O  O3159  1  0.34086525  0.40961300  0.90935450  1
  O  O3160  1  0.34086525  0.65961300  0.15935450  1
  O  O3161  1  0.34086525  0.65961300  0.40935450  1
  O  O3162  1  0.34086525  0.65961300  0.65935450  1
  O  O3163  1  0.34086525  0.65961300  0.90935450  1
  O  O3164  1  0.34086525  0.90961300  0.15935450  1
  O  O3165  1  0.34086525  0.90961300  0.40935450  1
  O  O3166  1  0.34086525  0.90961300  0.65935450  1
  O  O3167  1  0.34086525  0.90961300  0.90935450  1
  O  O3168  1  0.59086525  0.15961300  0.15935450  1
  O  O3169  1  0.59086525  0.15961300  0.40935450  1
  O  O3170  1  0.59086525  0.15961300  0.65935450  1
  O  O3171  1  0.59086525  0.15961300  0.90935450  1
  O  O3172  1  0.59086525  0.40961300  0.15935450  1
  O  O3173  1  0.59086525  0.40961300  0.40935450  1
  O  O3174  1  0.59086525  0.40961300  0.65935450  1
  O  O3175  1  0.59086525  0.40961300  0.90935450  1
  O  O3176  1  0.59086525  0.65961300  0.15935450  1
  O  O3177  1  0.59086525  0.65961300  0.40935450  1
  O  O3178  1  0.59086525  0.65961300  0.65935450  1
  O  O3179  1  0.59086525  0.65961300  0.90935450  1
  O  O3180  1  0.59086525  0.90961300  0.15935450  1
  O  O3181  1  0.59086525  0.90961300  0.40935450  1
  O  O3182  1  0.59086525  0.90961300  0.65935450  1
  O  O3183  1  0.59086525  0.90961300  0.90935450  1
  O  O3184  1  0.84086525  0.15961300  0.15935450  1
  O  O3185  1  0.84086525  0.15961300  0.40935450  1
  O  O3186  1  0.84086525  0.15961300  0.65935450  1
  O  O3187  1  0.84086525  0.15961300  0.90935450  1
  O  O3188  1  0.84086525  0.40961300  0.15935450  1
  O  O3189  1  0.84086525  0.40961300  0.40935450  1
  O  O3190  1  0.84086525  0.40961300  0.65935450  1
  O  O3191  1  0.84086525  0.40961300  0.90935450  1
  O  O3192  1  0.84086525  0.65961300  0.15935450  1
  O  O3193  1  0.84086525  0.65961300  0.40935450  1
  O  O3194  1  0.84086525  0.65961300  0.65935450  1
  O  O3195  1  0.84086525  0.65961300  0.90935450  1
  O  O3196  1  0.84086525  0.90961300  0.15935450  1
  O  O3197  1  0.84086525  0.90961300  0.40935450  1
  O  O3198  1  0.84086525  0.90961300  0.65935450  1
  O  O3199  1  0.84086525  0.90961300  0.90935450  1
  O  O3200  1  0.09053925  0.09053925  0.09053925  1
  O  O3201  1  0.09053925  0.09053925  0.34053925  1
  O  O3202  1  0.09053925  0.09053925  0.59053925  1
  O  O3203  1  0.09053925  0.09053925  0.84053925  1
  O  O3204  1  0.09053925  0.34053925  0.09053925  1
  O  O3205  1  0.09053925  0.34053925  0.34053925  1
  O  O3206  1  0.09053925  0.34053925  0.59053925  1
  O  O3207  1  0.09053925  0.34053925  0.84053925  1
  O  O3208  1  0.09053925  0.59053925  0.09053925  1
  O  O3209  1  0.09053925  0.59053925  0.34053925  1
  O  O3210  1  0.09053925  0.59053925  0.59053925  1
  O  O3211  1  0.09053925  0.59053925  0.84053925  1
  O  O3212  1  0.09053925  0.84053925  0.09053925  1
  O  O3213  1  0.09053925  0.84053925  0.34053925  1
  O  O3214  1  0.09053925  0.84053925  0.59053925  1
  O  O3215  1  0.09053925  0.84053925  0.84053925  1
  O  O3216  1  0.34053925  0.09053925  0.09053925  1
  O  O3217  1  0.34053925  0.09053925  0.34053925  1
  O  O3218  1  0.34053925  0.09053925  0.59053925  1
  O  O3219  1  0.34053925  0.09053925  0.84053925  1
  O  O3220  1  0.34053925  0.34053925  0.09053925  1
  O  O3221  1  0.34053925  0.34053925  0.34053925  1
  O  O3222  1  0.34053925  0.34053925  0.59053925  1
  O  O3223  1  0.34053925  0.34053925  0.84053925  1
  O  O3224  1  0.34053925  0.59053925  0.09053925  1
  O  O3225  1  0.34053925  0.59053925  0.34053925  1
  O  O3226  1  0.34053925  0.59053925  0.59053925  1
  O  O3227  1  0.34053925  0.59053925  0.84053925  1
  O  O3228  1  0.34053925  0.84053925  0.09053925  1
  O  O3229  1  0.34053925  0.84053925  0.34053925  1
  O  O3230  1  0.34053925  0.84053925  0.59053925  1
  O  O3231  1  0.34053925  0.84053925  0.84053925  1
  O  O3232  1  0.59053925  0.09053925  0.09053925  1
  O  O3233  1  0.59053925  0.09053925  0.34053925  1
  O  O3234  1  0.59053925  0.09053925  0.59053925  1
  O  O3235  1  0.59053925  0.09053925  0.84053925  1
  O  O3236  1  0.59053925  0.34053925  0.09053925  1
  O  O3237  1  0.59053925  0.34053925  0.34053925  1
  O  O3238  1  0.59053925  0.34053925  0.59053925  1
  O  O3239  1  0.59053925  0.34053925  0.84053925  1
  O  O3240  1  0.59053925  0.59053925  0.09053925  1
  O  O3241  1  0.59053925  0.59053925  0.34053925  1
  O  O3242  1  0.59053925  0.59053925  0.59053925  1
  O  O3243  1  0.59053925  0.59053925  0.84053925  1
  O  O3244  1  0.59053925  0.84053925  0.09053925  1
  O  O3245  1  0.59053925  0.84053925  0.34053925  1
  O  O3246  1  0.59053925  0.84053925  0.59053925  1
  O  O3247  1  0.59053925  0.84053925  0.84053925  1
  O  O3248  1  0.84053925  0.09053925  0.09053925  1
  O  O3249  1  0.84053925  0.09053925  0.34053925  1
  O  O3250  1  0.84053925  0.09053925  0.59053925  1
  O  O3251  1  0.84053925  0.09053925  0.84053925  1
  O  O3252  1  0.84053925  0.34053925  0.09053925  1
  O  O3253  1  0.84053925  0.34053925  0.34053925  1
  O  O3254  1  0.84053925  0.34053925  0.59053925  1
  O  O3255  1  0.84053925  0.34053925  0.84053925  1
  O  O3256  1  0.84053925  0.59053925  0.09053925  1
  O  O3257  1  0.84053925  0.59053925  0.34053925  1
  O  O3258  1  0.84053925  0.59053925  0.59053925  1
  O  O3259  1  0.84053925  0.59053925  0.84053925  1
  O  O3260  1  0.84053925  0.84053925  0.09053925  1
  O  O3261  1  0.84053925  0.84053925  0.34053925  1
  O  O3262  1  0.84053925  0.84053925  0.59053925  1
  O  O3263  1  0.84053925  0.84053925  0.84053925  1
  O  O3264  1  0.09711300  0.09663475  0.22185450  1
  O  O3265  1  0.09711300  0.09663475  0.47185450  1
  O  O3266  1  0.09711300  0.09663475  0.72185450  1
  O  O3267  1  0.09711300  0.09663475  0.97185450  1
  O  O3268  1  0.09711300  0.34663475  0.22185450  1
  O  O3269  1  0.09711300  0.34663475  0.47185450  1
  O  O3270  1  0.09711300  0.34663475  0.72185450  1
  O  O3271  1  0.09711300  0.34663475  0.97185450  1
  O  O3272  1  0.09711300  0.59663475  0.22185450  1
  O  O3273  1  0.09711300  0.59663475  0.47185450  1
  O  O3274  1  0.09711300  0.59663475  0.72185450  1
  O  O3275  1  0.09711300  0.59663475  0.97185450  1
  O  O3276  1  0.09711300  0.84663475  0.22185450  1
  O  O3277  1  0.09711300  0.84663475  0.47185450  1
  O  O3278  1  0.09711300  0.84663475  0.72185450  1
  O  O3279  1  0.09711300  0.84663475  0.97185450  1
  O  O3280  1  0.34711300  0.09663475  0.22185450  1
  O  O3281  1  0.34711300  0.09663475  0.47185450  1
  O  O3282  1  0.34711300  0.09663475  0.72185450  1
  O  O3283  1  0.34711300  0.09663475  0.97185450  1
  O  O3284  1  0.34711300  0.34663475  0.22185450  1
  O  O3285  1  0.34711300  0.34663475  0.47185450  1
  O  O3286  1  0.34711300  0.34663475  0.72185450  1
  O  O3287  1  0.34711300  0.34663475  0.97185450  1
  O  O3288  1  0.34711300  0.59663475  0.22185450  1
  O  O3289  1  0.34711300  0.59663475  0.47185450  1
  O  O3290  1  0.34711300  0.59663475  0.72185450  1
  O  O3291  1  0.34711300  0.59663475  0.97185450  1
  O  O3292  1  0.34711300  0.84663475  0.22185450  1
  O  O3293  1  0.34711300  0.84663475  0.47185450  1
  O  O3294  1  0.34711300  0.84663475  0.72185450  1
  O  O3295  1  0.34711300  0.84663475  0.97185450  1
  O  O3296  1  0.59711300  0.09663475  0.22185450  1
  O  O3297  1  0.59711300  0.09663475  0.47185450  1
  O  O3298  1  0.59711300  0.09663475  0.72185450  1
  O  O3299  1  0.59711300  0.09663475  0.97185450  1
  O  O3300  1  0.59711300  0.34663475  0.22185450  1
  O  O3301  1  0.59711300  0.34663475  0.47185450  1
  O  O3302  1  0.59711300  0.34663475  0.72185450  1
  O  O3303  1  0.59711300  0.34663475  0.97185450  1
  O  O3304  1  0.59711300  0.59663475  0.22185450  1
  O  O3305  1  0.59711300  0.59663475  0.47185450  1
  O  O3306  1  0.59711300  0.59663475  0.72185450  1
  O  O3307  1  0.59711300  0.59663475  0.97185450  1
  O  O3308  1  0.59711300  0.84663475  0.22185450  1
  O  O3309  1  0.59711300  0.84663475  0.47185450  1
  O  O3310  1  0.59711300  0.84663475  0.72185450  1
  O  O3311  1  0.59711300  0.84663475  0.97185450  1
  O  O3312  1  0.84711300  0.09663475  0.22185450  1
  O  O3313  1  0.84711300  0.09663475  0.47185450  1
  O  O3314  1  0.84711300  0.09663475  0.72185450  1
  O  O3315  1  0.84711300  0.09663475  0.97185450  1
  O  O3316  1  0.84711300  0.34663475  0.22185450  1
  O  O3317  1  0.84711300  0.34663475  0.47185450  1
  O  O3318  1  0.84711300  0.34663475  0.72185450  1
  O  O3319  1  0.84711300  0.34663475  0.97185450  1
  O  O3320  1  0.84711300  0.59663475  0.22185450  1
  O  O3321  1  0.84711300  0.59663475  0.47185450  1
  O  O3322  1  0.84711300  0.59663475  0.72185450  1
  O  O3323  1  0.84711300  0.59663475  0.97185450  1
  O  O3324  1  0.84711300  0.84663475  0.22185450  1
  O  O3325  1  0.84711300  0.84663475  0.47185450  1
  O  O3326  1  0.84711300  0.84663475  0.72185450  1
  O  O3327  1  0.84711300  0.84663475  0.97185450  1
  O  O3328  1  0.09038700  0.03435450  0.03413475  1
  O  O3329  1  0.09038700  0.03435450  0.28413475  1
  O  O3330  1  0.09038700  0.03435450  0.53413475  1
  O  O3331  1  0.09038700  0.03435450  0.78413475  1
  O  O3332  1  0.09038700  0.28435450  0.03413475  1
  O  O3333  1  0.09038700  0.28435450  0.28413475  1
  O  O3334  1  0.09038700  0.28435450  0.53413475  1
  O  O3335  1  0.09038700  0.28435450  0.78413475  1
  O  O3336  1  0.09038700  0.53435450  0.03413475  1
  O  O3337  1  0.09038700  0.53435450  0.28413475  1
  O  O3338  1  0.09038700  0.53435450  0.53413475  1
  O  O3339  1  0.09038700  0.53435450  0.78413475  1
  O  O3340  1  0.09038700  0.78435450  0.03413475  1
  O  O3341  1  0.09038700  0.78435450  0.28413475  1
  O  O3342  1  0.09038700  0.78435450  0.53413475  1
  O  O3343  1  0.09038700  0.78435450  0.78413475  1
  O  O3344  1  0.34038700  0.03435450  0.03413475  1
  O  O3345  1  0.34038700  0.03435450  0.28413475  1
  O  O3346  1  0.34038700  0.03435450  0.53413475  1
  O  O3347  1  0.34038700  0.03435450  0.78413475  1
  O  O3348  1  0.34038700  0.28435450  0.03413475  1
  O  O3349  1  0.34038700  0.28435450  0.28413475  1
  O  O3350  1  0.34038700  0.28435450  0.53413475  1
  O  O3351  1  0.34038700  0.28435450  0.78413475  1
  O  O3352  1  0.34038700  0.53435450  0.03413475  1
  O  O3353  1  0.34038700  0.53435450  0.28413475  1
  O  O3354  1  0.34038700  0.53435450  0.53413475  1
  O  O3355  1  0.34038700  0.53435450  0.78413475  1
  O  O3356  1  0.34038700  0.78435450  0.03413475  1
  O  O3357  1  0.34038700  0.78435450  0.28413475  1
  O  O3358  1  0.34038700  0.78435450  0.53413475  1
  O  O3359  1  0.34038700  0.78435450  0.78413475  1
  O  O3360  1  0.59038700  0.03435450  0.03413475  1
  O  O3361  1  0.59038700  0.03435450  0.28413475  1
  O  O3362  1  0.59038700  0.03435450  0.53413475  1
  O  O3363  1  0.59038700  0.03435450  0.78413475  1
  O  O3364  1  0.59038700  0.28435450  0.03413475  1
  O  O3365  1  0.59038700  0.28435450  0.28413475  1
  O  O3366  1  0.59038700  0.28435450  0.53413475  1
  O  O3367  1  0.59038700  0.28435450  0.78413475  1
  O  O3368  1  0.59038700  0.53435450  0.03413475  1
  O  O3369  1  0.59038700  0.53435450  0.28413475  1
  O  O3370  1  0.59038700  0.53435450  0.53413475  1
  O  O3371  1  0.59038700  0.53435450  0.78413475  1
  O  O3372  1  0.59038700  0.78435450  0.03413475  1
  O  O3373  1  0.59038700  0.78435450  0.28413475  1
  O  O3374  1  0.59038700  0.78435450  0.53413475  1
  O  O3375  1  0.59038700  0.78435450  0.78413475  1
  O  O3376  1  0.84038700  0.03435450  0.03413475  1
  O  O3377  1  0.84038700  0.03435450  0.28413475  1
  O  O3378  1  0.84038700  0.03435450  0.53413475  1
  O  O3379  1  0.84038700  0.03435450  0.78413475  1
  O  O3380  1  0.84038700  0.28435450  0.03413475  1
  O  O3381  1  0.84038700  0.28435450  0.28413475  1
  O  O3382  1  0.84038700  0.28435450  0.53413475  1
  O  O3383  1  0.84038700  0.28435450  0.78413475  1
  O  O3384  1  0.84038700  0.53435450  0.03413475  1
  O  O3385  1  0.84038700  0.53435450  0.28413475  1
  O  O3386  1  0.84038700  0.53435450  0.53413475  1
  O  O3387  1  0.84038700  0.53435450  0.78413475  1
  O  O3388  1  0.84038700  0.78435450  0.03413475  1
  O  O3389  1  0.84038700  0.78435450  0.28413475  1
  O  O3390  1  0.84038700  0.78435450  0.53413475  1
  O  O3391  1  0.84038700  0.78435450  0.78413475  1
  O  O3392  1  0.09696075  0.15303925  0.02803925  1
  O  O3393  1  0.09696075  0.15303925  0.27803925  1
  O  O3394  1  0.09696075  0.15303925  0.52803925  1
  O  O3395  1  0.09696075  0.15303925  0.77803925  1
  O  O3396  1  0.09696075  0.40303925  0.02803925  1
  O  O3397  1  0.09696075  0.40303925  0.27803925  1
  O  O3398  1  0.09696075  0.40303925  0.52803925  1
  O  O3399  1  0.09696075  0.40303925  0.77803925  1
  O  O3400  1  0.09696075  0.65303925  0.02803925  1
  O  O3401  1  0.09696075  0.65303925  0.27803925  1
  O  O3402  1  0.09696075  0.65303925  0.52803925  1
  O  O3403  1  0.09696075  0.65303925  0.77803925  1
  O  O3404  1  0.09696075  0.90303925  0.02803925  1
  O  O3405  1  0.09696075  0.90303925  0.27803925  1
  O  O3406  1  0.09696075  0.90303925  0.52803925  1
  O  O3407  1  0.09696075  0.90303925  0.77803925  1
  O  O3408  1  0.34696075  0.15303925  0.02803925  1
  O  O3409  1  0.34696075  0.15303925  0.27803925  1
  O  O3410  1  0.34696075  0.15303925  0.52803925  1
  O  O3411  1  0.34696075  0.15303925  0.77803925  1
  O  O3412  1  0.34696075  0.40303925  0.02803925  1
  O  O3413  1  0.34696075  0.40303925  0.27803925  1
  O  O3414  1  0.34696075  0.40303925  0.52803925  1
  O  O3415  1  0.34696075  0.40303925  0.77803925  1
  O  O3416  1  0.34696075  0.65303925  0.02803925  1
  O  O3417  1  0.34696075  0.65303925  0.27803925  1
  O  O3418  1  0.34696075  0.65303925  0.52803925  1
  O  O3419  1  0.34696075  0.65303925  0.77803925  1
  O  O3420  1  0.34696075  0.90303925  0.02803925  1
  O  O3421  1  0.34696075  0.90303925  0.27803925  1
  O  O3422  1  0.34696075  0.90303925  0.52803925  1
  O  O3423  1  0.34696075  0.90303925  0.77803925  1
  O  O3424  1  0.59696075  0.15303925  0.02803925  1
  O  O3425  1  0.59696075  0.15303925  0.27803925  1
  O  O3426  1  0.59696075  0.15303925  0.52803925  1
  O  O3427  1  0.59696075  0.15303925  0.77803925  1
  O  O3428  1  0.59696075  0.40303925  0.02803925  1
  O  O3429  1  0.59696075  0.40303925  0.27803925  1
  O  O3430  1  0.59696075  0.40303925  0.52803925  1
  O  O3431  1  0.59696075  0.40303925  0.77803925  1
  O  O3432  1  0.59696075  0.65303925  0.02803925  1
  O  O3433  1  0.59696075  0.65303925  0.27803925  1
  O  O3434  1  0.59696075  0.65303925  0.52803925  1
  O  O3435  1  0.59696075  0.65303925  0.77803925  1
  O  O3436  1  0.59696075  0.90303925  0.02803925  1
  O  O3437  1  0.59696075  0.90303925  0.27803925  1
  O  O3438  1  0.59696075  0.90303925  0.52803925  1
  O  O3439  1  0.59696075  0.90303925  0.77803925  1
  O  O3440  1  0.84696075  0.15303925  0.02803925  1
  O  O3441  1  0.84696075  0.15303925  0.27803925  1
  O  O3442  1  0.84696075  0.15303925  0.52803925  1
  O  O3443  1  0.84696075  0.15303925  0.77803925  1
  O  O3444  1  0.84696075  0.40303925  0.02803925  1
  O  O3445  1  0.84696075  0.40303925  0.27803925  1
  O  O3446  1  0.84696075  0.40303925  0.52803925  1
  O  O3447  1  0.84696075  0.40303925  0.77803925  1
  O  O3448  1  0.84696075  0.65303925  0.02803925  1
  O  O3449  1  0.84696075  0.65303925  0.27803925  1
  O  O3450  1  0.84696075  0.65303925  0.52803925  1
  O  O3451  1  0.84696075  0.65303925  0.77803925  1
  O  O3452  1  0.84696075  0.90303925  0.02803925  1
  O  O3453  1  0.84696075  0.90303925  0.27803925  1
  O  O3454  1  0.84696075  0.90303925  0.52803925  1
  O  O3455  1  0.84696075  0.90303925  0.77803925  1
  O  O3456  1  0.09663475  0.22185450  0.09711300  1
  O  O3457  1  0.09663475  0.22185450  0.34711300  1
  O  O3458  1  0.09663475  0.22185450  0.59711300  1
  O  O3459  1  0.09663475  0.22185450  0.84711300  1
  O  O3460  1  0.09663475  0.47185450  0.09711300  1
  O  O3461  1  0.09663475  0.47185450  0.34711300  1
  O  O3462  1  0.09663475  0.47185450  0.59711300  1
  O  O3463  1  0.09663475  0.47185450  0.84711300  1
  O  O3464  1  0.09663475  0.72185450  0.09711300  1
  O  O3465  1  0.09663475  0.72185450  0.34711300  1
  O  O3466  1  0.09663475  0.72185450  0.59711300  1
  O  O3467  1  0.09663475  0.72185450  0.84711300  1
  O  O3468  1  0.09663475  0.97185450  0.09711300  1
  O  O3469  1  0.09663475  0.97185450  0.34711300  1
  O  O3470  1  0.09663475  0.97185450  0.59711300  1
  O  O3471  1  0.09663475  0.97185450  0.84711300  1
  O  O3472  1  0.34663475  0.22185450  0.09711300  1
  O  O3473  1  0.34663475  0.22185450  0.34711300  1
  O  O3474  1  0.34663475  0.22185450  0.59711300  1
  O  O3475  1  0.34663475  0.22185450  0.84711300  1
  O  O3476  1  0.34663475  0.47185450  0.09711300  1
  O  O3477  1  0.34663475  0.47185450  0.34711300  1
  O  O3478  1  0.34663475  0.47185450  0.59711300  1
  O  O3479  1  0.34663475  0.47185450  0.84711300  1
  O  O3480  1  0.34663475  0.72185450  0.09711300  1
  O  O3481  1  0.34663475  0.72185450  0.34711300  1
  O  O3482  1  0.34663475  0.72185450  0.59711300  1
  O  O3483  1  0.34663475  0.72185450  0.84711300  1
  O  O3484  1  0.34663475  0.97185450  0.09711300  1
  O  O3485  1  0.34663475  0.97185450  0.34711300  1
  O  O3486  1  0.34663475  0.97185450  0.59711300  1
  O  O3487  1  0.34663475  0.97185450  0.84711300  1
  O  O3488  1  0.59663475  0.22185450  0.09711300  1
  O  O3489  1  0.59663475  0.22185450  0.34711300  1
  O  O3490  1  0.59663475  0.22185450  0.59711300  1
  O  O3491  1  0.59663475  0.22185450  0.84711300  1
  O  O3492  1  0.59663475  0.47185450  0.09711300  1
  O  O3493  1  0.59663475  0.47185450  0.34711300  1
  O  O3494  1  0.59663475  0.47185450  0.59711300  1
  O  O3495  1  0.59663475  0.47185450  0.84711300  1
  O  O3496  1  0.59663475  0.72185450  0.09711300  1
  O  O3497  1  0.59663475  0.72185450  0.34711300  1
  O  O3498  1  0.59663475  0.72185450  0.59711300  1
  O  O3499  1  0.59663475  0.72185450  0.84711300  1
  O  O3500  1  0.59663475  0.97185450  0.09711300  1
  O  O3501  1  0.59663475  0.97185450  0.34711300  1
  O  O3502  1  0.59663475  0.97185450  0.59711300  1
  O  O3503  1  0.59663475  0.97185450  0.84711300  1
  O  O3504  1  0.84663475  0.22185450  0.09711300  1
  O  O3505  1  0.84663475  0.22185450  0.34711300  1
  O  O3506  1  0.84663475  0.22185450  0.59711300  1
  O  O3507  1  0.84663475  0.22185450  0.84711300  1
  O  O3508  1  0.84663475  0.47185450  0.09711300  1
  O  O3509  1  0.84663475  0.47185450  0.34711300  1
  O  O3510  1  0.84663475  0.47185450  0.59711300  1
  O  O3511  1  0.84663475  0.47185450  0.84711300  1
  O  O3512  1  0.84663475  0.72185450  0.09711300  1
  O  O3513  1  0.84663475  0.72185450  0.34711300  1
  O  O3514  1  0.84663475  0.72185450  0.59711300  1
  O  O3515  1  0.84663475  0.72185450  0.84711300  1
  O  O3516  1  0.84663475  0.97185450  0.09711300  1
  O  O3517  1  0.84663475  0.97185450  0.34711300  1
  O  O3518  1  0.84663475  0.97185450  0.59711300  1
  O  O3519  1  0.84663475  0.97185450  0.84711300  1
  O  O3520  1  0.09685450  0.02788700  0.15336525  1
  O  O3521  1  0.09685450  0.02788700  0.40336525  1
  O  O3522  1  0.09685450  0.02788700  0.65336525  1
  O  O3523  1  0.09685450  0.02788700  0.90336525  1
  O  O3524  1  0.09685450  0.27788700  0.15336525  1
  O  O3525  1  0.09685450  0.27788700  0.40336525  1
  O  O3526  1  0.09685450  0.27788700  0.65336525  1
  O  O3527  1  0.09685450  0.27788700  0.90336525  1
  O  O3528  1  0.09685450  0.52788700  0.15336525  1
  O  O3529  1  0.09685450  0.52788700  0.40336525  1
  O  O3530  1  0.09685450  0.52788700  0.65336525  1
  O  O3531  1  0.09685450  0.52788700  0.90336525  1
  O  O3532  1  0.09685450  0.77788700  0.15336525  1
  O  O3533  1  0.09685450  0.77788700  0.40336525  1
  O  O3534  1  0.09685450  0.77788700  0.65336525  1
  O  O3535  1  0.09685450  0.77788700  0.90336525  1
  O  O3536  1  0.34685450  0.02788700  0.15336525  1
  O  O3537  1  0.34685450  0.02788700  0.40336525  1
  O  O3538  1  0.34685450  0.02788700  0.65336525  1
  O  O3539  1  0.34685450  0.02788700  0.90336525  1
  O  O3540  1  0.34685450  0.27788700  0.15336525  1
  O  O3541  1  0.34685450  0.27788700  0.40336525  1
  O  O3542  1  0.34685450  0.27788700  0.65336525  1
  O  O3543  1  0.34685450  0.27788700  0.90336525  1
  O  O3544  1  0.34685450  0.52788700  0.15336525  1
  O  O3545  1  0.34685450  0.52788700  0.40336525  1
  O  O3546  1  0.34685450  0.52788700  0.65336525  1
  O  O3547  1  0.34685450  0.52788700  0.90336525  1
  O  O3548  1  0.34685450  0.77788700  0.15336525  1
  O  O3549  1  0.34685450  0.77788700  0.40336525  1
  O  O3550  1  0.34685450  0.77788700  0.65336525  1
  O  O3551  1  0.34685450  0.77788700  0.90336525  1
  O  O3552  1  0.59685450  0.02788700  0.15336525  1
  O  O3553  1  0.59685450  0.02788700  0.40336525  1
  O  O3554  1  0.59685450  0.02788700  0.65336525  1
  O  O3555  1  0.59685450  0.02788700  0.90336525  1
  O  O3556  1  0.59685450  0.27788700  0.15336525  1
  O  O3557  1  0.59685450  0.27788700  0.40336525  1
  O  O3558  1  0.59685450  0.27788700  0.65336525  1
  O  O3559  1  0.59685450  0.27788700  0.90336525  1
  O  O3560  1  0.59685450  0.52788700  0.15336525  1
  O  O3561  1  0.59685450  0.52788700  0.40336525  1
  O  O3562  1  0.59685450  0.52788700  0.65336525  1
  O  O3563  1  0.59685450  0.52788700  0.90336525  1
  O  O3564  1  0.59685450  0.77788700  0.15336525  1
  O  O3565  1  0.59685450  0.77788700  0.40336525  1
  O  O3566  1  0.59685450  0.77788700  0.65336525  1
  O  O3567  1  0.59685450  0.77788700  0.90336525  1
  O  O3568  1  0.84685450  0.02788700  0.15336525  1
  O  O3569  1  0.84685450  0.02788700  0.40336525  1
  O  O3570  1  0.84685450  0.02788700  0.65336525  1
  O  O3571  1  0.84685450  0.02788700  0.90336525  1
  O  O3572  1  0.84685450  0.27788700  0.15336525  1
  O  O3573  1  0.84685450  0.27788700  0.40336525  1
  O  O3574  1  0.84685450  0.27788700  0.65336525  1
  O  O3575  1  0.84685450  0.27788700  0.90336525  1
  O  O3576  1  0.84685450  0.52788700  0.15336525  1
  O  O3577  1  0.84685450  0.52788700  0.40336525  1
  O  O3578  1  0.84685450  0.52788700  0.65336525  1
  O  O3579  1  0.84685450  0.52788700  0.90336525  1
  O  O3580  1  0.84685450  0.77788700  0.15336525  1
  O  O3581  1  0.84685450  0.77788700  0.40336525  1
  O  O3582  1  0.84685450  0.77788700  0.65336525  1
  O  O3583  1  0.84685450  0.77788700  0.90336525  1
