# generated using pymatgen
data_Li2NiGe3O8
_symmetry_space_group_name_H-M   'P 1'
_cell_length_a   32.75855520
_cell_length_b   32.75851960
_cell_length_c   32.75865112
_cell_angle_alpha   90.00008227
_cell_angle_beta   90.00001903
_cell_angle_gamma   90.00024389
_symmetry_Int_Tables_number   1
_chemical_formula_structural   Li2NiGe3O8
_chemical_formula_sum   'Li512 Ni256 Ge768 O2048'
_cell_volume   35154.02175727
_cell_formula_units_Z   256
loop_
 _symmetry_equiv_pos_site_id
 _symmetry_equiv_pos_as_xyz
  1  'x, y, z'
loop_
 _atom_site_type_symbol
 _atom_site_label
 _atom_site_symmetry_multiplicity
 _atom_site_fract_x
 _atom_site_fract_y
 _atom_site_fract_z
 _atom_site_occupancy
  Li  Li0  1  0.12584681  0.12584756  0.12584709  1
  Li  Li1  1  0.12584681  0.12584756  0.37584709  1
  Li  Li2  1  0.12584681  0.12584756  0.62584709  1
  Li  Li3  1  0.12584681  0.12584756  0.87584709  1
  Li  Li4  1  0.12584681  0.37584756  0.12584709  1
  Li  Li5  1  0.12584681  0.37584756  0.37584709  1
  Li  Li6  1  0.12584681  0.37584756  0.62584709  1
  Li  Li7  1  0.12584681  0.37584756  0.87584709  1
  Li  Li8  1  0.12584681  0.62584756  0.12584709  1
  Li  Li9  1  0.12584681  0.62584756  0.37584709  1
  Li  Li10  1  0.12584681  0.62584756  0.62584709  1
  Li  Li11  1  0.12584681  0.62584756  0.87584709  1
  Li  Li12  1  0.12584681  0.87584756  0.12584709  1
  Li  Li13  1  0.12584681  0.87584756  0.37584709  1
  Li  Li14  1  0.12584681  0.87584756  0.62584709  1
  Li  Li15  1  0.12584681  0.87584756  0.87584709  1
  Li  Li16  1  0.37584681  0.12584756  0.12584709  1
  Li  Li17  1  0.37584681  0.12584756  0.37584709  1
  Li  Li18  1  0.37584681  0.12584756  0.62584709  1
  Li  Li19  1  0.37584681  0.12584756  0.87584709  1
  Li  Li20  1  0.37584681  0.37584756  0.12584709  1
  Li  Li21  1  0.37584681  0.37584756  0.37584709  1
  Li  Li22  1  0.37584681  0.37584756  0.62584709  1
  Li  Li23  1  0.37584681  0.37584756  0.87584709  1
  Li  Li24  1  0.37584681  0.62584756  0.12584709  1
  Li  Li25  1  0.37584681  0.62584756  0.37584709  1
  Li  Li26  1  0.37584681  0.62584756  0.62584709  1
  Li  Li27  1  0.37584681  0.62584756  0.87584709  1
  Li  Li28  1  0.37584681  0.87584756  0.12584709  1
  Li  Li29  1  0.37584681  0.87584756  0.37584709  1
  Li  Li30  1  0.37584681  0.87584756  0.62584709  1
  Li  Li31  1  0.37584681  0.87584756  0.87584709  1
  Li  Li32  1  0.62584681  0.12584756  0.12584709  1
  Li  Li33  1  0.62584681  0.12584756  0.37584709  1
  Li  Li34  1  0.62584681  0.12584756  0.62584709  1
  Li  Li35  1  0.62584681  0.12584756  0.87584709  1
  Li  Li36  1  0.62584681  0.37584756  0.12584709  1
  Li  Li37  1  0.62584681  0.37584756  0.37584709  1
  Li  Li38  1  0.62584681  0.37584756  0.62584709  1
  Li  Li39  1  0.62584681  0.37584756  0.87584709  1
  Li  Li40  1  0.62584681  0.62584756  0.12584709  1
  Li  Li41  1  0.62584681  0.62584756  0.37584709  1
  Li  Li42  1  0.62584681  0.62584756  0.62584709  1
  Li  Li43  1  0.62584681  0.62584756  0.87584709  1
  Li  Li44  1  0.62584681  0.87584756  0.12584709  1
  Li  Li45  1  0.62584681  0.87584756  0.37584709  1
  Li  Li46  1  0.62584681  0.87584756  0.62584709  1
  Li  Li47  1  0.62584681  0.87584756  0.87584709  1
  Li  Li48  1  0.87584681  0.12584756  0.12584709  1
  Li  Li49  1  0.87584681  0.12584756  0.37584709  1
  Li  Li50  1  0.87584681  0.12584756  0.62584709  1
  Li  Li51  1  0.87584681  0.12584756  0.87584709  1
  Li  Li52  1  0.87584681  0.37584756  0.12584709  1
  Li  Li53  1  0.87584681  0.37584756  0.37584709  1
  Li  Li54  1  0.87584681  0.37584756  0.62584709  1
  Li  Li55  1  0.87584681  0.37584756  0.87584709  1
  Li  Li56  1  0.87584681  0.62584756  0.12584709  1
  Li  Li57  1  0.87584681  0.62584756  0.37584709  1
  Li  Li58  1  0.87584681  0.62584756  0.62584709  1
  Li  Li59  1  0.87584681  0.62584756  0.87584709  1
  Li  Li60  1  0.87584681  0.87584756  0.12584709  1
  Li  Li61  1  0.87584681  0.87584756  0.37584709  1
  Li  Li62  1  0.87584681  0.87584756  0.62584709  1
  Li  Li63  1  0.87584681  0.87584756  0.87584709  1
  Li  Li64  1  0.06334600  0.06165383  0.18834608  1
  Li  Li65  1  0.06334600  0.06165383  0.43834608  1
  Li  Li66  1  0.06334600  0.06165383  0.68834608  1
  Li  Li67  1  0.06334600  0.06165383  0.93834608  1
  Li  Li68  1  0.06334600  0.31165383  0.18834608  1
  Li  Li69  1  0.06334600  0.31165383  0.43834608  1
  Li  Li70  1  0.06334600  0.31165383  0.68834608  1
  Li  Li71  1  0.06334600  0.31165383  0.93834608  1
  Li  Li72  1  0.06334600  0.56165383  0.18834608  1
  Li  Li73  1  0.06334600  0.56165383  0.43834608  1
  Li  Li74  1  0.06334600  0.56165383  0.68834608  1
  Li  Li75  1  0.06334600  0.56165383  0.93834608  1
  Li  Li76  1  0.06334600  0.81165383  0.18834608  1
  Li  Li77  1  0.06334600  0.81165383  0.43834608  1
  Li  Li78  1  0.06334600  0.81165383  0.68834608  1
  Li  Li79  1  0.06334600  0.81165383  0.93834608  1
  Li  Li80  1  0.31334600  0.06165383  0.18834608  1
  Li  Li81  1  0.31334600  0.06165383  0.43834608  1
  Li  Li82  1  0.31334600  0.06165383  0.68834608  1
  Li  Li83  1  0.31334600  0.06165383  0.93834608  1
  Li  Li84  1  0.31334600  0.31165383  0.18834608  1
  Li  Li85  1  0.31334600  0.31165383  0.43834608  1
  Li  Li86  1  0.31334600  0.31165383  0.68834608  1
  Li  Li87  1  0.31334600  0.31165383  0.93834608  1
  Li  Li88  1  0.31334600  0.56165383  0.18834608  1
  Li  Li89  1  0.31334600  0.56165383  0.43834608  1
  Li  Li90  1  0.31334600  0.56165383  0.68834608  1
  Li  Li91  1  0.31334600  0.56165383  0.93834608  1
  Li  Li92  1  0.31334600  0.81165383  0.18834608  1
  Li  Li93  1  0.31334600  0.81165383  0.43834608  1
  Li  Li94  1  0.31334600  0.81165383  0.68834608  1
  Li  Li95  1  0.31334600  0.81165383  0.93834608  1
  Li  Li96  1  0.56334600  0.06165383  0.18834608  1
  Li  Li97  1  0.56334600  0.06165383  0.43834608  1
  Li  Li98  1  0.56334600  0.06165383  0.68834608  1
  Li  Li99  1  0.56334600  0.06165383  0.93834608  1
  Li  Li100  1  0.56334600  0.31165383  0.18834608  1
  Li  Li101  1  0.56334600  0.31165383  0.43834608  1
  Li  Li102  1  0.56334600  0.31165383  0.68834608  1
  Li  Li103  1  0.56334600  0.31165383  0.93834608  1
  Li  Li104  1  0.56334600  0.56165383  0.18834608  1
  Li  Li105  1  0.56334600  0.56165383  0.43834608  1
  Li  Li106  1  0.56334600  0.56165383  0.68834608  1
  Li  Li107  1  0.56334600  0.56165383  0.93834608  1
  Li  Li108  1  0.56334600  0.81165383  0.18834608  1
  Li  Li109  1  0.56334600  0.81165383  0.43834608  1
  Li  Li110  1  0.56334600  0.81165383  0.68834608  1
  Li  Li111  1  0.56334600  0.81165383  0.93834608  1
  Li  Li112  1  0.81334600  0.06165383  0.18834608  1
  Li  Li113  1  0.81334600  0.06165383  0.43834608  1
  Li  Li114  1  0.81334600  0.06165383  0.68834608  1
  Li  Li115  1  0.81334600  0.06165383  0.93834608  1
  Li  Li116  1  0.81334600  0.31165383  0.18834608  1
  Li  Li117  1  0.81334600  0.31165383  0.43834608  1
  Li  Li118  1  0.81334600  0.31165383  0.68834608  1
  Li  Li119  1  0.81334600  0.31165383  0.93834608  1
  Li  Li120  1  0.81334600  0.56165383  0.18834608  1
  Li  Li121  1  0.81334600  0.56165383  0.43834608  1
  Li  Li122  1  0.81334600  0.56165383  0.68834608  1
  Li  Li123  1  0.81334600  0.56165383  0.93834608  1
  Li  Li124  1  0.81334600  0.81165383  0.18834608  1
  Li  Li125  1  0.81334600  0.81165383  0.43834608  1
  Li  Li126  1  0.81334600  0.81165383  0.68834608  1
  Li  Li127  1  0.81334600  0.81165383  0.93834608  1
  Li  Li128  1  0.18834712  0.06334703  0.06165301  1
  Li  Li129  1  0.18834712  0.06334703  0.31165301  1
  Li  Li130  1  0.18834712  0.06334703  0.56165301  1
  Li  Li131  1  0.18834712  0.06334703  0.81165301  1
  Li  Li132  1  0.18834712  0.31334703  0.06165301  1
  Li  Li133  1  0.18834712  0.31334703  0.31165301  1
  Li  Li134  1  0.18834712  0.31334703  0.56165301  1
  Li  Li135  1  0.18834712  0.31334703  0.81165301  1
  Li  Li136  1  0.18834712  0.56334703  0.06165301  1
  Li  Li137  1  0.18834712  0.56334703  0.31165301  1
  Li  Li138  1  0.18834712  0.56334703  0.56165301  1
  Li  Li139  1  0.18834712  0.56334703  0.81165301  1
  Li  Li140  1  0.18834712  0.81334703  0.06165301  1
  Li  Li141  1  0.18834712  0.81334703  0.31165302  1
  Li  Li142  1  0.18834712  0.81334703  0.56165301  1
  Li  Li143  1  0.18834712  0.81334703  0.81165301  1
  Li  Li144  1  0.43834712  0.06334703  0.06165301  1
  Li  Li145  1  0.43834712  0.06334703  0.31165302  1
  Li  Li146  1  0.43834712  0.06334703  0.56165301  1
  Li  Li147  1  0.43834712  0.06334703  0.81165301  1
  Li  Li148  1  0.43834712  0.31334703  0.06165301  1
  Li  Li149  1  0.43834712  0.31334703  0.31165301  1
  Li  Li150  1  0.43834712  0.31334703  0.56165301  1
  Li  Li151  1  0.43834712  0.31334703  0.81165301  1
  Li  Li152  1  0.43834712  0.56334703  0.06165301  1
  Li  Li153  1  0.43834712  0.56334703  0.31165301  1
  Li  Li154  1  0.43834712  0.56334703  0.56165301  1
  Li  Li155  1  0.43834712  0.56334703  0.81165301  1
  Li  Li156  1  0.43834712  0.81334703  0.06165301  1
  Li  Li157  1  0.43834712  0.81334703  0.31165301  1
  Li  Li158  1  0.43834712  0.81334703  0.56165301  1
  Li  Li159  1  0.43834712  0.81334703  0.81165301  1
  Li  Li160  1  0.68834712  0.06334703  0.06165301  1
  Li  Li161  1  0.68834712  0.06334703  0.31165302  1
  Li  Li162  1  0.68834712  0.06334703  0.56165301  1
  Li  Li163  1  0.68834712  0.06334703  0.81165301  1
  Li  Li164  1  0.68834712  0.31334703  0.06165301  1
  Li  Li165  1  0.68834712  0.31334703  0.31165301  1
  Li  Li166  1  0.68834712  0.31334703  0.56165301  1
  Li  Li167  1  0.68834712  0.31334703  0.81165301  1
  Li  Li168  1  0.68834712  0.56334703  0.06165301  1
  Li  Li169  1  0.68834712  0.56334703  0.31165301  1
  Li  Li170  1  0.68834712  0.56334703  0.56165301  1
  Li  Li171  1  0.68834712  0.56334703  0.81165301  1
  Li  Li172  1  0.68834712  0.81334703  0.06165301  1
  Li  Li173  1  0.68834712  0.81334703  0.31165301  1
  Li  Li174  1  0.68834712  0.81334703  0.56165301  1
  Li  Li175  1  0.68834712  0.81334703  0.81165301  1
  Li  Li176  1  0.93834712  0.06334703  0.06165301  1
  Li  Li177  1  0.93834712  0.06334703  0.31165301  1
  Li  Li178  1  0.93834712  0.06334703  0.56165301  1
  Li  Li179  1  0.93834712  0.06334703  0.81165301  1
  Li  Li180  1  0.93834712  0.31334703  0.06165301  1
  Li  Li181  1  0.93834712  0.31334703  0.31165302  1
  Li  Li182  1  0.93834712  0.31334703  0.56165301  1
  Li  Li183  1  0.93834712  0.31334703  0.81165301  1
  Li  Li184  1  0.93834712  0.56334703  0.06165301  1
  Li  Li185  1  0.93834712  0.56334703  0.31165301  1
  Li  Li186  1  0.93834712  0.56334703  0.56165301  1
  Li  Li187  1  0.93834712  0.56334703  0.81165301  1
  Li  Li188  1  0.93834712  0.81334703  0.06165301  1
  Li  Li189  1  0.93834712  0.81334703  0.31165301  1
  Li  Li190  1  0.93834712  0.81334703  0.56165301  1
  Li  Li191  1  0.93834712  0.81334703  0.81165301  1
  Li  Li192  1  0.06165289  0.18834790  0.06334646  1
  Li  Li193  1  0.06165289  0.18834790  0.31334646  1
  Li  Li194  1  0.06165289  0.18834790  0.56334646  1
  Li  Li195  1  0.06165289  0.18834790  0.81334646  1
  Li  Li196  1  0.06165289  0.43834790  0.06334646  1
  Li  Li197  1  0.06165289  0.43834790  0.31334646  1
  Li  Li198  1  0.06165289  0.43834790  0.56334646  1
  Li  Li199  1  0.06165289  0.43834790  0.81334646  1
  Li  Li200  1  0.06165289  0.68834790  0.06334646  1
  Li  Li201  1  0.06165289  0.68834790  0.31334646  1
  Li  Li202  1  0.06165289  0.68834790  0.56334646  1
  Li  Li203  1  0.06165289  0.68834790  0.81334646  1
  Li  Li204  1  0.06165289  0.93834790  0.06334646  1
  Li  Li205  1  0.06165289  0.93834790  0.31334646  1
  Li  Li206  1  0.06165289  0.93834790  0.56334646  1
  Li  Li207  1  0.06165289  0.93834790  0.81334646  1
  Li  Li208  1  0.31165289  0.18834790  0.06334646  1
  Li  Li209  1  0.31165289  0.18834790  0.31334646  1
  Li  Li210  1  0.31165289  0.18834790  0.56334646  1
  Li  Li211  1  0.31165289  0.18834790  0.81334646  1
  Li  Li212  1  0.31165289  0.43834790  0.06334646  1
  Li  Li213  1  0.31165289  0.43834790  0.31334646  1
  Li  Li214  1  0.31165289  0.43834790  0.56334646  1
  Li  Li215  1  0.31165289  0.43834790  0.81334646  1
  Li  Li216  1  0.31165289  0.68834790  0.06334646  1
  Li  Li217  1  0.31165289  0.68834790  0.31334646  1
  Li  Li218  1  0.31165289  0.68834790  0.56334646  1
  Li  Li219  1  0.31165289  0.68834790  0.81334646  1
  Li  Li220  1  0.31165289  0.93834790  0.06334646  1
  Li  Li221  1  0.31165289  0.93834790  0.31334646  1
  Li  Li222  1  0.31165289  0.93834790  0.56334646  1
  Li  Li223  1  0.31165289  0.93834790  0.81334646  1
  Li  Li224  1  0.56165289  0.18834790  0.06334646  1
  Li  Li225  1  0.56165289  0.18834790  0.31334646  1
  Li  Li226  1  0.56165289  0.18834790  0.56334646  1
  Li  Li227  1  0.56165289  0.18834790  0.81334646  1
  Li  Li228  1  0.56165289  0.43834790  0.06334646  1
  Li  Li229  1  0.56165289  0.43834790  0.31334646  1
  Li  Li230  1  0.56165289  0.43834790  0.56334646  1
  Li  Li231  1  0.56165289  0.43834790  0.81334646  1
  Li  Li232  1  0.56165289  0.68834790  0.06334646  1
  Li  Li233  1  0.56165289  0.68834790  0.31334646  1
  Li  Li234  1  0.56165289  0.68834790  0.56334646  1
  Li  Li235  1  0.56165289  0.68834790  0.81334646  1
  Li  Li236  1  0.56165289  0.93834790  0.06334646  1
  Li  Li237  1  0.56165289  0.93834790  0.31334646  1
  Li  Li238  1  0.56165289  0.93834790  0.56334646  1
  Li  Li239  1  0.56165289  0.93834790  0.81334646  1
  Li  Li240  1  0.81165289  0.18834790  0.06334646  1
  Li  Li241  1  0.81165289  0.18834790  0.31334646  1
  Li  Li242  1  0.81165289  0.18834790  0.56334646  1
  Li  Li243  1  0.81165289  0.18834790  0.81334646  1
  Li  Li244  1  0.81165289  0.43834790  0.06334646  1
  Li  Li245  1  0.81165289  0.43834790  0.31334646  1
  Li  Li246  1  0.81165289  0.43834790  0.56334646  1
  Li  Li247  1  0.81165289  0.43834790  0.81334646  1
  Li  Li248  1  0.81165289  0.68834790  0.06334646  1
  Li  Li249  1  0.81165289  0.68834790  0.31334646  1
  Li  Li250  1  0.81165289  0.68834790  0.56334646  1
  Li  Li251  1  0.81165289  0.68834790  0.81334646  1
  Li  Li252  1  0.81165289  0.93834790  0.06334646  1
  Li  Li253  1  0.81165289  0.93834790  0.31334646  1
  Li  Li254  1  0.81165289  0.93834790  0.56334646  1
  Li  Li255  1  0.81165289  0.93834790  0.81334646  1
  Li  Li256  1  0.24915350  0.12415219  0.00084726  1
  Li  Li257  1  0.24915350  0.12415219  0.25084726  1
  Li  Li258  1  0.24915350  0.12415219  0.50084726  1
  Li  Li259  1  0.24915350  0.12415219  0.75084727  1
  Li  Li260  1  0.24915350  0.37415219  0.00084726  1
  Li  Li261  1  0.24915350  0.37415219  0.25084726  1
  Li  Li262  1  0.24915350  0.37415219  0.50084727  1
  Li  Li263  1  0.24915350  0.37415219  0.75084726  1
  Li  Li264  1  0.24915350  0.62415219  0.00084726  1
  Li  Li265  1  0.24915350  0.62415219  0.25084726  1
  Li  Li266  1  0.24915350  0.62415219  0.50084726  1
  Li  Li267  1  0.24915350  0.62415219  0.75084726  1
  Li  Li268  1  0.24915350  0.87415219  0.00084726  1
  Li  Li269  1  0.24915350  0.87415219  0.25084726  1
  Li  Li270  1  0.24915350  0.87415219  0.50084726  1
  Li  Li271  1  0.24915350  0.87415219  0.75084726  1
  Li  Li272  1  0.49915350  0.12415219  0.00084726  1
  Li  Li273  1  0.49915350  0.12415219  0.25084726  1
  Li  Li274  1  0.49915350  0.12415219  0.50084726  1
  Li  Li275  1  0.49915350  0.12415219  0.75084726  1
  Li  Li276  1  0.49915350  0.37415219  0.00084726  1
  Li  Li277  1  0.49915350  0.37415219  0.25084726  1
  Li  Li278  1  0.49915350  0.37415219  0.50084727  1
  Li  Li279  1  0.49915350  0.37415219  0.75084726  1
  Li  Li280  1  0.49915350  0.62415219  0.00084726  1
  Li  Li281  1  0.49915350  0.62415219  0.25084726  1
  Li  Li282  1  0.49915350  0.62415219  0.50084726  1
  Li  Li283  1  0.49915350  0.62415219  0.75084727  1
  Li  Li284  1  0.49915350  0.87415219  0.00084726  1
  Li  Li285  1  0.49915350  0.87415219  0.25084726  1
  Li  Li286  1  0.49915350  0.87415219  0.50084727  1
  Li  Li287  1  0.49915350  0.87415219  0.75084726  1
  Li  Li288  1  0.74915350  0.12415219  0.00084726  1
  Li  Li289  1  0.74915350  0.12415219  0.25084726  1
  Li  Li290  1  0.74915350  0.12415219  0.50084726  1
  Li  Li291  1  0.74915350  0.12415219  0.75084726  1
  Li  Li292  1  0.74915350  0.37415219  0.00084726  1
  Li  Li293  1  0.74915350  0.37415219  0.25084726  1
  Li  Li294  1  0.74915350  0.37415219  0.50084726  1
  Li  Li295  1  0.74915350  0.37415219  0.75084726  1
  Li  Li296  1  0.74915350  0.62415219  0.00084727  1
  Li  Li297  1  0.74915350  0.62415219  0.25084726  1
  Li  Li298  1  0.74915350  0.62415219  0.50084726  1
  Li  Li299  1  0.74915350  0.62415219  0.75084727  1
  Li  Li300  1  0.74915350  0.87415219  0.00084727  1
  Li  Li301  1  0.74915350  0.87415219  0.25084726  1
  Li  Li302  1  0.74915350  0.87415219  0.50084727  1
  Li  Li303  1  0.74915350  0.87415219  0.75084726  1
  Li  Li304  1  0.99915350  0.12415219  0.00084726  1
  Li  Li305  1  0.99915350  0.12415219  0.25084726  1
  Li  Li306  1  0.99915350  0.12415219  0.50084727  1
  Li  Li307  1  0.99915350  0.12415219  0.75084726  1
  Li  Li308  1  0.99915350  0.37415219  0.00084727  1
  Li  Li309  1  0.99915350  0.37415219  0.25084726  1
  Li  Li310  1  0.99915350  0.37415219  0.50084726  1
  Li  Li311  1  0.99915350  0.37415219  0.75084726  1
  Li  Li312  1  0.99915350  0.62415219  0.00084727  1
  Li  Li313  1  0.99915350  0.62415219  0.25084726  1
  Li  Li314  1  0.99915350  0.62415219  0.50084726  1
  Li  Li315  1  0.99915350  0.62415219  0.75084726  1
  Li  Li316  1  0.99915350  0.87415219  0.00084726  1
  Li  Li317  1  0.99915350  0.87415219  0.25084726  1
  Li  Li318  1  0.99915350  0.87415219  0.50084727  1
  Li  Li319  1  0.99915350  0.87415219  0.75084726  1
  Li  Li320  1  0.00084703  0.24915284  0.12415321  1
  Li  Li321  1  0.00084703  0.24915284  0.37415321  1
  Li  Li322  1  0.00084703  0.24915284  0.62415321  1
  Li  Li323  1  0.00084703  0.24915284  0.87415321  1
  Li  Li324  1  0.00084703  0.49915284  0.12415321  1
  Li  Li325  1  0.00084703  0.49915284  0.37415321  1
  Li  Li326  1  0.00084703  0.49915284  0.62415321  1
  Li  Li327  1  0.00084703  0.49915284  0.87415321  1
  Li  Li328  1  0.00084703  0.74915284  0.12415321  1
  Li  Li329  1  0.00084703  0.74915283  0.37415321  1
  Li  Li330  1  0.00084703  0.74915284  0.62415321  1
  Li  Li331  1  0.00084703  0.74915284  0.87415321  1
  Li  Li332  1  0.00084703  0.99915284  0.12415321  1
  Li  Li333  1  0.00084703  0.99915283  0.37415321  1
  Li  Li334  1  0.00084703  0.99915284  0.62415321  1
  Li  Li335  1  0.00084703  0.99915284  0.87415321  1
  Li  Li336  1  0.25084703  0.24915284  0.12415321  1
  Li  Li337  1  0.25084703  0.24915284  0.37415321  1
  Li  Li338  1  0.25084703  0.24915284  0.62415321  1
  Li  Li339  1  0.25084703  0.24915284  0.87415321  1
  Li  Li340  1  0.25084703  0.49915284  0.12415321  1
  Li  Li341  1  0.25084703  0.49915284  0.37415321  1
  Li  Li342  1  0.25084703  0.49915284  0.62415321  1
  Li  Li343  1  0.25084703  0.49915284  0.87415321  1
  Li  Li344  1  0.25084703  0.74915284  0.12415321  1
  Li  Li345  1  0.25084703  0.74915283  0.37415321  1
  Li  Li346  1  0.25084703  0.74915284  0.62415321  1
  Li  Li347  1  0.25084703  0.74915284  0.87415321  1
  Li  Li348  1  0.25084703  0.99915284  0.12415321  1
  Li  Li349  1  0.25084703  0.99915283  0.37415321  1
  Li  Li350  1  0.25084703  0.99915284  0.62415321  1
  Li  Li351  1  0.25084703  0.99915284  0.87415321  1
  Li  Li352  1  0.50084703  0.24915284  0.12415321  1
  Li  Li353  1  0.50084703  0.24915284  0.37415321  1
  Li  Li354  1  0.50084703  0.24915284  0.62415321  1
  Li  Li355  1  0.50084703  0.24915284  0.87415321  1
  Li  Li356  1  0.50084703  0.49915284  0.12415321  1
  Li  Li357  1  0.50084703  0.49915284  0.37415321  1
  Li  Li358  1  0.50084703  0.49915284  0.62415321  1
  Li  Li359  1  0.50084703  0.49915284  0.87415321  1
  Li  Li360  1  0.50084703  0.74915284  0.12415321  1
  Li  Li361  1  0.50084703  0.74915283  0.37415321  1
  Li  Li362  1  0.50084703  0.74915284  0.62415321  1
  Li  Li363  1  0.50084703  0.74915284  0.87415321  1
  Li  Li364  1  0.50084703  0.99915284  0.12415321  1
  Li  Li365  1  0.50084703  0.99915283  0.37415321  1
  Li  Li366  1  0.50084703  0.99915284  0.62415321  1
  Li  Li367  1  0.50084703  0.99915284  0.87415321  1
  Li  Li368  1  0.75084703  0.24915284  0.12415321  1
  Li  Li369  1  0.75084703  0.24915284  0.37415321  1
  Li  Li370  1  0.75084703  0.24915284  0.62415321  1
  Li  Li371  1  0.75084703  0.24915284  0.87415321  1
  Li  Li372  1  0.75084703  0.49915284  0.12415321  1
  Li  Li373  1  0.75084703  0.49915284  0.37415321  1
  Li  Li374  1  0.75084703  0.49915284  0.62415321  1
  Li  Li375  1  0.75084703  0.49915284  0.87415321  1
  Li  Li376  1  0.75084703  0.74915284  0.12415321  1
  Li  Li377  1  0.75084703  0.74915283  0.37415321  1
  Li  Li378  1  0.75084703  0.74915284  0.62415321  1
  Li  Li379  1  0.75084703  0.74915284  0.87415321  1
  Li  Li380  1  0.75084703  0.99915284  0.12415321  1
  Li  Li381  1  0.75084703  0.99915283  0.37415321  1
  Li  Li382  1  0.75084703  0.99915284  0.62415321  1
  Li  Li383  1  0.75084703  0.99915284  0.87415321  1
  Li  Li384  1  0.12415330  0.00084572  0.24915414  1
  Li  Li385  1  0.12415330  0.00084572  0.49915414  1
  Li  Li386  1  0.12415330  0.00084572  0.74915414  1
  Li  Li387  1  0.12415330  0.00084572  0.99915414  1
  Li  Li388  1  0.12415330  0.25084572  0.24915414  1
  Li  Li389  1  0.12415330  0.25084572  0.49915414  1
  Li  Li390  1  0.12415330  0.25084572  0.74915414  1
  Li  Li391  1  0.12415330  0.25084572  0.99915414  1
  Li  Li392  1  0.12415330  0.50084572  0.24915414  1
  Li  Li393  1  0.12415330  0.50084572  0.49915414  1
  Li  Li394  1  0.12415330  0.50084572  0.74915414  1
  Li  Li395  1  0.12415330  0.50084572  0.99915414  1
  Li  Li396  1  0.12415330  0.75084572  0.24915414  1
  Li  Li397  1  0.12415330  0.75084572  0.49915414  1
  Li  Li398  1  0.12415330  0.75084572  0.74915414  1
  Li  Li399  1  0.12415330  0.75084572  0.99915414  1
  Li  Li400  1  0.37415330  0.00084572  0.24915414  1
  Li  Li401  1  0.37415330  0.00084572  0.49915414  1
  Li  Li402  1  0.37415330  0.00084572  0.74915414  1
  Li  Li403  1  0.37415330  0.00084572  0.99915414  1
  Li  Li404  1  0.37415330  0.25084572  0.24915414  1
  Li  Li405  1  0.37415330  0.25084572  0.49915414  1
  Li  Li406  1  0.37415330  0.25084572  0.74915414  1
  Li  Li407  1  0.37415330  0.25084572  0.99915414  1
  Li  Li408  1  0.37415330  0.50084572  0.24915414  1
  Li  Li409  1  0.37415330  0.50084572  0.49915414  1
  Li  Li410  1  0.37415330  0.50084572  0.74915414  1
  Li  Li411  1  0.37415330  0.50084572  0.99915414  1
  Li  Li412  1  0.37415330  0.75084572  0.24915414  1
  Li  Li413  1  0.37415330  0.75084572  0.49915414  1
  Li  Li414  1  0.37415330  0.75084572  0.74915414  1
  Li  Li415  1  0.37415330  0.75084572  0.99915414  1
  Li  Li416  1  0.62415330  0.00084572  0.24915414  1
  Li  Li417  1  0.62415330  0.00084572  0.49915414  1
  Li  Li418  1  0.62415330  0.00084572  0.74915414  1
  Li  Li419  1  0.62415330  0.00084572  0.99915414  1
  Li  Li420  1  0.62415330  0.25084572  0.24915414  1
  Li  Li421  1  0.62415330  0.25084572  0.49915414  1
  Li  Li422  1  0.62415330  0.25084572  0.74915414  1
  Li  Li423  1  0.62415330  0.25084572  0.99915414  1
  Li  Li424  1  0.62415330  0.50084572  0.24915414  1
  Li  Li425  1  0.62415330  0.50084572  0.49915414  1
  Li  Li426  1  0.62415330  0.50084572  0.74915414  1
  Li  Li427  1  0.62415330  0.50084572  0.99915414  1
  Li  Li428  1  0.62415330  0.75084572  0.24915414  1
  Li  Li429  1  0.62415330  0.75084572  0.49915414  1
  Li  Li430  1  0.62415330  0.75084572  0.74915414  1
  Li  Li431  1  0.62415330  0.75084572  0.99915414  1
  Li  Li432  1  0.87415330  0.00084572  0.24915414  1
  Li  Li433  1  0.87415330  0.00084572  0.49915414  1
  Li  Li434  1  0.87415330  0.00084572  0.74915414  1
  Li  Li435  1  0.87415330  0.00084572  0.99915414  1
  Li  Li436  1  0.87415330  0.25084572  0.24915414  1
  Li  Li437  1  0.87415330  0.25084572  0.49915414  1
  Li  Li438  1  0.87415330  0.25084572  0.74915414  1
  Li  Li439  1  0.87415330  0.25084572  0.99915414  1
  Li  Li440  1  0.87415330  0.50084572  0.24915414  1
  Li  Li441  1  0.87415330  0.50084572  0.49915414  1
  Li  Li442  1  0.87415330  0.50084572  0.74915414  1
  Li  Li443  1  0.87415330  0.50084572  0.99915414  1
  Li  Li444  1  0.87415330  0.75084572  0.24915414  1
  Li  Li445  1  0.87415330  0.75084572  0.49915414  1
  Li  Li446  1  0.87415330  0.75084572  0.74915414  1
  Li  Li447  1  0.87415330  0.75084572  0.99915414  1
  Li  Li448  1  0.18665269  0.18665288  0.18665284  1
  Li  Li449  1  0.18665269  0.18665288  0.43665284  1
  Li  Li450  1  0.18665269  0.18665288  0.68665284  1
  Li  Li451  1  0.18665269  0.18665288  0.93665284  1
  Li  Li452  1  0.18665269  0.43665288  0.18665284  1
  Li  Li453  1  0.18665269  0.43665288  0.43665284  1
  Li  Li454  1  0.18665269  0.43665288  0.68665284  1
  Li  Li455  1  0.18665269  0.43665288  0.93665284  1
  Li  Li456  1  0.18665269  0.68665288  0.18665284  1
  Li  Li457  1  0.18665269  0.68665288  0.43665284  1
  Li  Li458  1  0.18665269  0.68665288  0.68665284  1
  Li  Li459  1  0.18665269  0.68665288  0.93665284  1
  Li  Li460  1  0.18665269  0.93665288  0.18665284  1
  Li  Li461  1  0.18665269  0.93665288  0.43665284  1
  Li  Li462  1  0.18665269  0.93665288  0.68665284  1
  Li  Li463  1  0.18665269  0.93665288  0.93665284  1
  Li  Li464  1  0.43665269  0.18665288  0.18665284  1
  Li  Li465  1  0.43665269  0.18665288  0.43665284  1
  Li  Li466  1  0.43665269  0.18665288  0.68665284  1
  Li  Li467  1  0.43665269  0.18665288  0.93665284  1
  Li  Li468  1  0.43665269  0.43665288  0.18665284  1
  Li  Li469  1  0.43665269  0.43665288  0.43665284  1
  Li  Li470  1  0.43665269  0.43665288  0.68665284  1
  Li  Li471  1  0.43665269  0.43665288  0.93665284  1
  Li  Li472  1  0.43665269  0.68665288  0.18665284  1
  Li  Li473  1  0.43665269  0.68665288  0.43665284  1
  Li  Li474  1  0.43665269  0.68665288  0.68665284  1
  Li  Li475  1  0.43665269  0.68665288  0.93665284  1
  Li  Li476  1  0.43665269  0.93665288  0.18665284  1
  Li  Li477  1  0.43665269  0.93665288  0.43665284  1
  Li  Li478  1  0.43665269  0.93665288  0.68665284  1
  Li  Li479  1  0.43665269  0.93665288  0.93665284  1
  Li  Li480  1  0.68665269  0.18665288  0.18665284  1
  Li  Li481  1  0.68665269  0.18665288  0.43665284  1
  Li  Li482  1  0.68665269  0.18665288  0.68665284  1
  Li  Li483  1  0.68665269  0.18665288  0.93665284  1
  Li  Li484  1  0.68665269  0.43665288  0.18665284  1
  Li  Li485  1  0.68665269  0.43665288  0.43665284  1
  Li  Li486  1  0.68665269  0.43665288  0.68665284  1
  Li  Li487  1  0.68665269  0.43665288  0.93665284  1
  Li  Li488  1  0.68665269  0.68665288  0.18665284  1
  Li  Li489  1  0.68665269  0.68665288  0.43665284  1
  Li  Li490  1  0.68665269  0.68665288  0.68665284  1
  Li  Li491  1  0.68665269  0.68665288  0.93665284  1
  Li  Li492  1  0.68665269  0.93665288  0.18665284  1
  Li  Li493  1  0.68665269  0.93665288  0.43665284  1
  Li  Li494  1  0.68665269  0.93665288  0.68665284  1
  Li  Li495  1  0.68665269  0.93665288  0.93665284  1
  Li  Li496  1  0.93665269  0.18665288  0.18665284  1
  Li  Li497  1  0.93665269  0.18665288  0.43665284  1
  Li  Li498  1  0.93665269  0.18665288  0.68665284  1
  Li  Li499  1  0.93665269  0.18665288  0.93665284  1
  Li  Li500  1  0.93665269  0.43665288  0.18665284  1
  Li  Li501  1  0.93665269  0.43665288  0.43665284  1
  Li  Li502  1  0.93665269  0.43665288  0.68665284  1
  Li  Li503  1  0.93665269  0.43665288  0.93665284  1
  Li  Li504  1  0.93665269  0.68665288  0.18665284  1
  Li  Li505  1  0.93665269  0.68665288  0.43665284  1
  Li  Li506  1  0.93665269  0.68665288  0.68665284  1
  Li  Li507  1  0.93665269  0.68665288  0.93665284  1
  Li  Li508  1  0.93665269  0.93665288  0.18665284  1
  Li  Li509  1  0.93665269  0.93665288  0.43665284  1
  Li  Li510  1  0.93665269  0.93665288  0.68665284  1
  Li  Li511  1  0.93665269  0.93665288  0.93665284  1
  Ni  Ni512  1  0.03125110  0.03124977  0.03124865  1
  Ni  Ni513  1  0.03125110  0.03124977  0.28124865  1
  Ni  Ni514  1  0.03125110  0.03124977  0.53124865  1
  Ni  Ni515  1  0.03125110  0.03124977  0.78124865  1
  Ni  Ni516  1  0.03125110  0.28124977  0.03124865  1
  Ni  Ni517  1  0.03125110  0.28124977  0.28124865  1
  Ni  Ni518  1  0.03125110  0.28124977  0.53124865  1
  Ni  Ni519  1  0.03125110  0.28124977  0.78124865  1
  Ni  Ni520  1  0.03125110  0.53124977  0.03124865  1
  Ni  Ni521  1  0.03125110  0.53124977  0.28124865  1
  Ni  Ni522  1  0.03125110  0.53124977  0.53124865  1
  Ni  Ni523  1  0.03125110  0.53124977  0.78124865  1
  Ni  Ni524  1  0.03125110  0.78124977  0.03124865  1
  Ni  Ni525  1  0.03125110  0.78124977  0.28124865  1
  Ni  Ni526  1  0.03125110  0.78124977  0.53124865  1
  Ni  Ni527  1  0.03125110  0.78124977  0.78124865  1
  Ni  Ni528  1  0.28125110  0.03124977  0.03124865  1
  Ni  Ni529  1  0.28125110  0.03124977  0.28124865  1
  Ni  Ni530  1  0.28125110  0.03124977  0.53124865  1
  Ni  Ni531  1  0.28125110  0.03124977  0.78124865  1
  Ni  Ni532  1  0.28125110  0.28124977  0.03124865  1
  Ni  Ni533  1  0.28125110  0.28124977  0.28124865  1
  Ni  Ni534  1  0.28125110  0.28124977  0.53124865  1
  Ni  Ni535  1  0.28125110  0.28124977  0.78124865  1
  Ni  Ni536  1  0.28125110  0.53124977  0.03124865  1
  Ni  Ni537  1  0.28125110  0.53124977  0.28124865  1
  Ni  Ni538  1  0.28125110  0.53124977  0.53124865  1
  Ni  Ni539  1  0.28125110  0.53124977  0.78124865  1
  Ni  Ni540  1  0.28125110  0.78124977  0.03124865  1
  Ni  Ni541  1  0.28125110  0.78124977  0.28124865  1
  Ni  Ni542  1  0.28125110  0.78124977  0.53124865  1
  Ni  Ni543  1  0.28125110  0.78124977  0.78124865  1
  Ni  Ni544  1  0.53125110  0.03124977  0.03124865  1
  Ni  Ni545  1  0.53125110  0.03124977  0.28124865  1
  Ni  Ni546  1  0.53125110  0.03124977  0.53124865  1
  Ni  Ni547  1  0.53125110  0.03124977  0.78124865  1
  Ni  Ni548  1  0.53125110  0.28124977  0.03124865  1
  Ni  Ni549  1  0.53125110  0.28124977  0.28124865  1
  Ni  Ni550  1  0.53125110  0.28124977  0.53124865  1
  Ni  Ni551  1  0.53125110  0.28124977  0.78124865  1
  Ni  Ni552  1  0.53125110  0.53124977  0.03124865  1
  Ni  Ni553  1  0.53125110  0.53124977  0.28124865  1
  Ni  Ni554  1  0.53125110  0.53124977  0.53124865  1
  Ni  Ni555  1  0.53125110  0.53124977  0.78124865  1
  Ni  Ni556  1  0.53125110  0.78124977  0.03124865  1
  Ni  Ni557  1  0.53125110  0.78124977  0.28124865  1
  Ni  Ni558  1  0.53125110  0.78124977  0.53124865  1
  Ni  Ni559  1  0.53125110  0.78124977  0.78124865  1
  Ni  Ni560  1  0.78125110  0.03124977  0.03124865  1
  Ni  Ni561  1  0.78125110  0.03124977  0.28124865  1
  Ni  Ni562  1  0.78125110  0.03124977  0.53124865  1
  Ni  Ni563  1  0.78125110  0.03124977  0.78124865  1
  Ni  Ni564  1  0.78125110  0.28124977  0.03124865  1
  Ni  Ni565  1  0.78125110  0.28124977  0.28124865  1
  Ni  Ni566  1  0.78125110  0.28124977  0.53124865  1
  Ni  Ni567  1  0.78125110  0.28124977  0.78124865  1
  Ni  Ni568  1  0.78125110  0.53124977  0.03124865  1
  Ni  Ni569  1  0.78125110  0.53124977  0.28124865  1
  Ni  Ni570  1  0.78125110  0.53124977  0.53124865  1
  Ni  Ni571  1  0.78125110  0.53124977  0.78124865  1
  Ni  Ni572  1  0.78125110  0.78124977  0.03124865  1
  Ni  Ni573  1  0.78125110  0.78124977  0.28124865  1
  Ni  Ni574  1  0.78125110  0.78124977  0.53124865  1
  Ni  Ni575  1  0.78125110  0.78124977  0.78124865  1
  Ni  Ni576  1  0.09375071  0.21875037  0.15624940  1
  Ni  Ni577  1  0.09375071  0.21875037  0.40624940  1
  Ni  Ni578  1  0.09375071  0.21875037  0.65624940  1
  Ni  Ni579  1  0.09375071  0.21875037  0.90624940  1
  Ni  Ni580  1  0.09375071  0.46875037  0.15624940  1
  Ni  Ni581  1  0.09375071  0.46875037  0.40624940  1
  Ni  Ni582  1  0.09375071  0.46875037  0.65624940  1
  Ni  Ni583  1  0.09375071  0.46875037  0.90624940  1
  Ni  Ni584  1  0.09375071  0.71875037  0.15624940  1
  Ni  Ni585  1  0.09375071  0.71875037  0.40624940  1
  Ni  Ni586  1  0.09375071  0.71875037  0.65624940  1
  Ni  Ni587  1  0.09375071  0.71875037  0.90624940  1
  Ni  Ni588  1  0.09375071  0.96875037  0.15624940  1
  Ni  Ni589  1  0.09375071  0.96875037  0.40624940  1
  Ni  Ni590  1  0.09375071  0.96875037  0.65624940  1
  Ni  Ni591  1  0.09375071  0.96875037  0.90624940  1
  Ni  Ni592  1  0.34375071  0.21875037  0.15624940  1
  Ni  Ni593  1  0.34375071  0.21875037  0.40624940  1
  Ni  Ni594  1  0.34375071  0.21875037  0.65624940  1
  Ni  Ni595  1  0.34375071  0.21875037  0.90624940  1
  Ni  Ni596  1  0.34375071  0.46875037  0.15624940  1
  Ni  Ni597  1  0.34375071  0.46875037  0.40624940  1
  Ni  Ni598  1  0.34375071  0.46875037  0.65624940  1
  Ni  Ni599  1  0.34375071  0.46875037  0.90624940  1
  Ni  Ni600  1  0.34375071  0.71875037  0.15624940  1
  Ni  Ni601  1  0.34375071  0.71875037  0.40624940  1
  Ni  Ni602  1  0.34375071  0.71875037  0.65624940  1
  Ni  Ni603  1  0.34375071  0.71875037  0.90624940  1
  Ni  Ni604  1  0.34375071  0.96875037  0.15624940  1
  Ni  Ni605  1  0.34375071  0.96875037  0.40624940  1
  Ni  Ni606  1  0.34375071  0.96875037  0.65624940  1
  Ni  Ni607  1  0.34375071  0.96875037  0.90624940  1
  Ni  Ni608  1  0.59375071  0.21875037  0.15624940  1
  Ni  Ni609  1  0.59375071  0.21875037  0.40624940  1
  Ni  Ni610  1  0.59375071  0.21875037  0.65624940  1
  Ni  Ni611  1  0.59375071  0.21875037  0.90624940  1
  Ni  Ni612  1  0.59375071  0.46875037  0.15624940  1
  Ni  Ni613  1  0.59375071  0.46875037  0.40624940  1
  Ni  Ni614  1  0.59375071  0.46875037  0.65624940  1
  Ni  Ni615  1  0.59375071  0.46875037  0.90624940  1
  Ni  Ni616  1  0.59375071  0.71875037  0.15624940  1
  Ni  Ni617  1  0.59375071  0.71875037  0.40624940  1
  Ni  Ni618  1  0.59375071  0.71875037  0.65624940  1
  Ni  Ni619  1  0.59375071  0.71875037  0.90624940  1
  Ni  Ni620  1  0.59375071  0.96875037  0.15624940  1
  Ni  Ni621  1  0.59375071  0.96875037  0.40624940  1
  Ni  Ni622  1  0.59375071  0.96875037  0.65624940  1
  Ni  Ni623  1  0.59375071  0.96875037  0.90624940  1
  Ni  Ni624  1  0.84375071  0.21875037  0.15624940  1
  Ni  Ni625  1  0.84375071  0.21875037  0.40624940  1
  Ni  Ni626  1  0.84375071  0.21875037  0.65624940  1
  Ni  Ni627  1  0.84375071  0.21875037  0.90624940  1
  Ni  Ni628  1  0.84375071  0.46875037  0.15624940  1
  Ni  Ni629  1  0.84375071  0.46875037  0.40624940  1
  Ni  Ni630  1  0.84375071  0.46875037  0.65624940  1
  Ni  Ni631  1  0.84375071  0.46875037  0.90624940  1
  Ni  Ni632  1  0.84375071  0.71875037  0.15624940  1
  Ni  Ni633  1  0.84375071  0.71875037  0.40624940  1
  Ni  Ni634  1  0.84375071  0.71875037  0.65624940  1
  Ni  Ni635  1  0.84375071  0.71875037  0.90624940  1
  Ni  Ni636  1  0.84375071  0.96875037  0.15624940  1
  Ni  Ni637  1  0.84375071  0.96875037  0.40624940  1
  Ni  Ni638  1  0.84375071  0.96875037  0.65624940  1
  Ni  Ni639  1  0.84375071  0.96875037  0.90624940  1
  Ni  Ni640  1  0.15625051  0.09374950  0.21874915  1
  Ni  Ni641  1  0.15625051  0.09374950  0.46874914  1
  Ni  Ni642  1  0.15625051  0.09374950  0.71874914  1
  Ni  Ni643  1  0.15625051  0.09374950  0.96874915  1
  Ni  Ni644  1  0.15625051  0.34374950  0.21874915  1
  Ni  Ni645  1  0.15625051  0.34374950  0.46874914  1
  Ni  Ni646  1  0.15625051  0.34374950  0.71874915  1
  Ni  Ni647  1  0.15625051  0.34374950  0.96874914  1
  Ni  Ni648  1  0.15625051  0.59374950  0.21874915  1
  Ni  Ni649  1  0.15625051  0.59374949  0.46874914  1
  Ni  Ni650  1  0.15625051  0.59374950  0.71874914  1
  Ni  Ni651  1  0.15625051  0.59374950  0.96874914  1
  Ni  Ni652  1  0.15625051  0.84374950  0.21874915  1
  Ni  Ni653  1  0.15625051  0.84374949  0.46874915  1
  Ni  Ni654  1  0.15625051  0.84374950  0.71874914  1
  Ni  Ni655  1  0.15625051  0.84374950  0.96874914  1
  Ni  Ni656  1  0.40625051  0.09374950  0.21874915  1
  Ni  Ni657  1  0.40625051  0.09374950  0.46874914  1
  Ni  Ni658  1  0.40625051  0.09374950  0.71874914  1
  Ni  Ni659  1  0.40625051  0.09374950  0.96874914  1
  Ni  Ni660  1  0.40625051  0.34374950  0.21874915  1
  Ni  Ni661  1  0.40625051  0.34374950  0.46874914  1
  Ni  Ni662  1  0.40625051  0.34374950  0.71874915  1
  Ni  Ni663  1  0.40625051  0.34374950  0.96874914  1
  Ni  Ni664  1  0.40625051  0.59374950  0.21874915  1
  Ni  Ni665  1  0.40625051  0.59374949  0.46874914  1
  Ni  Ni666  1  0.40625051  0.59374950  0.71874914  1
  Ni  Ni667  1  0.40625051  0.59374950  0.96874914  1
  Ni  Ni668  1  0.40625051  0.84374950  0.21874915  1
  Ni  Ni669  1  0.40625051  0.84374949  0.46874914  1
  Ni  Ni670  1  0.40625051  0.84374950  0.71874914  1
  Ni  Ni671  1  0.40625051  0.84374950  0.96874914  1
  Ni  Ni672  1  0.65625051  0.09374950  0.21874915  1
  Ni  Ni673  1  0.65625051  0.09374950  0.46874915  1
  Ni  Ni674  1  0.65625051  0.09374950  0.71874914  1
  Ni  Ni675  1  0.65625051  0.09374950  0.96874914  1
  Ni  Ni676  1  0.65625051  0.34374950  0.21874915  1
  Ni  Ni677  1  0.65625051  0.34374950  0.46874914  1
  Ni  Ni678  1  0.65625051  0.34374950  0.71874914  1
  Ni  Ni679  1  0.65625051  0.34374950  0.96874915  1
  Ni  Ni680  1  0.65625051  0.59374950  0.21874915  1
  Ni  Ni681  1  0.65625051  0.59374949  0.46874914  1
  Ni  Ni682  1  0.65625051  0.59374950  0.71874915  1
  Ni  Ni683  1  0.65625051  0.59374950  0.96874914  1
  Ni  Ni684  1  0.65625051  0.84374950  0.21874915  1
  Ni  Ni685  1  0.65625051  0.84374949  0.46874914  1
  Ni  Ni686  1  0.65625051  0.84374950  0.71874914  1
  Ni  Ni687  1  0.65625051  0.84374950  0.96874914  1
  Ni  Ni688  1  0.90625051  0.09374950  0.21874915  1
  Ni  Ni689  1  0.90625051  0.09374950  0.46874914  1
  Ni  Ni690  1  0.90625051  0.09374950  0.71874914  1
  Ni  Ni691  1  0.90625051  0.09374950  0.96874914  1
  Ni  Ni692  1  0.90625051  0.34374950  0.21874915  1
  Ni  Ni693  1  0.90625051  0.34374950  0.46874915  1
  Ni  Ni694  1  0.90625051  0.34374950  0.71874914  1
  Ni  Ni695  1  0.90625051  0.34374950  0.96874915  1
  Ni  Ni696  1  0.90625051  0.59374950  0.21874915  1
  Ni  Ni697  1  0.90625051  0.59374949  0.46874914  1
  Ni  Ni698  1  0.90625051  0.59374949  0.71874915  1
  Ni  Ni699  1  0.90625051  0.59374950  0.96874914  1
  Ni  Ni700  1  0.90625051  0.84374950  0.21874915  1
  Ni  Ni701  1  0.90625051  0.84374949  0.46874914  1
  Ni  Ni702  1  0.90625051  0.84374950  0.71874914  1
  Ni  Ni703  1  0.90625051  0.84374950  0.96874914  1
  Ni  Ni704  1  0.21875130  0.15625025  0.09374922  1
  Ni  Ni705  1  0.21875130  0.15625025  0.34374922  1
  Ni  Ni706  1  0.21875130  0.15625025  0.59374922  1
  Ni  Ni707  1  0.21875130  0.15625025  0.84374922  1
  Ni  Ni708  1  0.21875130  0.40625025  0.09374922  1
  Ni  Ni709  1  0.21875130  0.40625025  0.34374922  1
  Ni  Ni710  1  0.21875130  0.40625025  0.59374922  1
  Ni  Ni711  1  0.21875130  0.40625025  0.84374922  1
  Ni  Ni712  1  0.21875130  0.65625025  0.09374922  1
  Ni  Ni713  1  0.21875130  0.65625025  0.34374922  1
  Ni  Ni714  1  0.21875130  0.65625025  0.59374922  1
  Ni  Ni715  1  0.21875130  0.65625025  0.84374922  1
  Ni  Ni716  1  0.21875130  0.90625025  0.09374922  1
  Ni  Ni717  1  0.21875130  0.90625025  0.34374922  1
  Ni  Ni718  1  0.21875130  0.90625025  0.59374922  1
  Ni  Ni719  1  0.21875130  0.90625025  0.84374922  1
  Ni  Ni720  1  0.46875130  0.15625025  0.09374922  1
  Ni  Ni721  1  0.46875130  0.15625025  0.34374922  1
  Ni  Ni722  1  0.46875130  0.15625025  0.59374922  1
  Ni  Ni723  1  0.46875130  0.15625025  0.84374922  1
  Ni  Ni724  1  0.46875130  0.40625025  0.09374922  1
  Ni  Ni725  1  0.46875130  0.40625025  0.34374922  1
  Ni  Ni726  1  0.46875130  0.40625025  0.59374922  1
  Ni  Ni727  1  0.46875130  0.40625025  0.84374922  1
  Ni  Ni728  1  0.46875130  0.65625025  0.09374922  1
  Ni  Ni729  1  0.46875130  0.65625025  0.34374922  1
  Ni  Ni730  1  0.46875130  0.65625025  0.59374922  1
  Ni  Ni731  1  0.46875130  0.65625025  0.84374922  1
  Ni  Ni732  1  0.46875130  0.90625025  0.09374922  1
  Ni  Ni733  1  0.46875130  0.90625025  0.34374922  1
  Ni  Ni734  1  0.46875130  0.90625025  0.59374922  1
  Ni  Ni735  1  0.46875130  0.90625025  0.84374922  1
  Ni  Ni736  1  0.71875130  0.15625025  0.09374922  1
  Ni  Ni737  1  0.71875130  0.15625025  0.34374922  1
  Ni  Ni738  1  0.71875130  0.15625025  0.59374922  1
  Ni  Ni739  1  0.71875130  0.15625025  0.84374922  1
  Ni  Ni740  1  0.71875130  0.40625025  0.09374922  1
  Ni  Ni741  1  0.71875130  0.40625025  0.34374922  1
  Ni  Ni742  1  0.71875130  0.40625025  0.59374922  1
  Ni  Ni743  1  0.71875130  0.40625025  0.84374922  1
  Ni  Ni744  1  0.71875130  0.65625025  0.09374922  1
  Ni  Ni745  1  0.71875130  0.65625025  0.34374922  1
  Ni  Ni746  1  0.71875130  0.65625025  0.59374922  1
  Ni  Ni747  1  0.71875130  0.65625025  0.84374922  1
  Ni  Ni748  1  0.71875130  0.90625025  0.09374922  1
  Ni  Ni749  1  0.71875130  0.90625025  0.34374922  1
  Ni  Ni750  1  0.71875130  0.90625025  0.59374922  1
  Ni  Ni751  1  0.71875130  0.90625025  0.84374922  1
  Ni  Ni752  1  0.96875130  0.15625025  0.09374922  1
  Ni  Ni753  1  0.96875130  0.15625025  0.34374922  1
  Ni  Ni754  1  0.96875130  0.15625025  0.59374922  1
  Ni  Ni755  1  0.96875130  0.15625025  0.84374922  1
  Ni  Ni756  1  0.96875130  0.40625025  0.09374922  1
  Ni  Ni757  1  0.96875130  0.40625025  0.34374922  1
  Ni  Ni758  1  0.96875130  0.40625025  0.59374922  1
  Ni  Ni759  1  0.96875130  0.40625025  0.84374922  1
  Ni  Ni760  1  0.96875130  0.65625025  0.09374922  1
  Ni  Ni761  1  0.96875130  0.65625025  0.34374922  1
  Ni  Ni762  1  0.96875130  0.65625025  0.59374922  1
  Ni  Ni763  1  0.96875130  0.65625025  0.84374922  1
  Ni  Ni764  1  0.96875130  0.90625025  0.09374922  1
  Ni  Ni765  1  0.96875130  0.90625025  0.34374922  1
  Ni  Ni766  1  0.96875130  0.90625025  0.59374922  1
  Ni  Ni767  1  0.96875130  0.90625025  0.84374922  1
  Ge  Ge768  1  0.21932432  0.09317084  0.15625284  1
  Ge  Ge769  1  0.21932432  0.09317084  0.40625284  1
  Ge  Ge770  1  0.21932432  0.09317084  0.65625284  1
  Ge  Ge771  1  0.21932432  0.09317084  0.90625284  1
  Ge  Ge772  1  0.21932432  0.34317084  0.15625284  1
  Ge  Ge773  1  0.21932432  0.34317084  0.40625284  1
  Ge  Ge774  1  0.21932432  0.34317084  0.65625284  1
  Ge  Ge775  1  0.21932432  0.34317084  0.90625284  1
  Ge  Ge776  1  0.21932432  0.59317084  0.15625284  1
  Ge  Ge777  1  0.21932432  0.59317084  0.40625284  1
  Ge  Ge778  1  0.21932432  0.59317084  0.65625284  1
  Ge  Ge779  1  0.21932432  0.59317084  0.90625284  1
  Ge  Ge780  1  0.21932432  0.84317084  0.15625284  1
  Ge  Ge781  1  0.21932433  0.84317084  0.40625284  1
  Ge  Ge782  1  0.21932432  0.84317084  0.65625284  1
  Ge  Ge783  1  0.21932432  0.84317084  0.90625284  1
  Ge  Ge784  1  0.46932432  0.09317084  0.15625284  1
  Ge  Ge785  1  0.46932432  0.09317084  0.40625284  1
  Ge  Ge786  1  0.46932432  0.09317084  0.65625284  1
  Ge  Ge787  1  0.46932432  0.09317084  0.90625284  1
  Ge  Ge788  1  0.46932432  0.34317084  0.15625284  1
  Ge  Ge789  1  0.46932432  0.34317084  0.40625284  1
  Ge  Ge790  1  0.46932432  0.34317084  0.65625284  1
  Ge  Ge791  1  0.46932433  0.34317084  0.90625284  1
  Ge  Ge792  1  0.46932432  0.59317084  0.15625284  1
  Ge  Ge793  1  0.46932432  0.59317084  0.40625284  1
  Ge  Ge794  1  0.46932432  0.59317084  0.65625284  1
  Ge  Ge795  1  0.46932432  0.59317084  0.90625284  1
  Ge  Ge796  1  0.46932432  0.84317084  0.15625284  1
  Ge  Ge797  1  0.46932432  0.84317084  0.40625284  1
  Ge  Ge798  1  0.46932432  0.84317084  0.65625284  1
  Ge  Ge799  1  0.46932432  0.84317084  0.90625284  1
  Ge  Ge800  1  0.71932432  0.09317084  0.15625284  1
  Ge  Ge801  1  0.71932432  0.09317084  0.40625284  1
  Ge  Ge802  1  0.71932432  0.09317084  0.65625284  1
  Ge  Ge803  1  0.71932432  0.09317084  0.90625284  1
  Ge  Ge804  1  0.71932432  0.34317084  0.15625284  1
  Ge  Ge805  1  0.71932432  0.34317084  0.40625284  1
  Ge  Ge806  1  0.71932432  0.34317084  0.65625284  1
  Ge  Ge807  1  0.71932432  0.34317084  0.90625284  1
  Ge  Ge808  1  0.71932432  0.59317084  0.15625284  1
  Ge  Ge809  1  0.71932432  0.59317084  0.40625284  1
  Ge  Ge810  1  0.71932432  0.59317084  0.65625284  1
  Ge  Ge811  1  0.71932432  0.59317084  0.90625284  1
  Ge  Ge812  1  0.71932433  0.84317084  0.15625284  1
  Ge  Ge813  1  0.71932432  0.84317084  0.40625284  1
  Ge  Ge814  1  0.71932432  0.84317084  0.65625284  1
  Ge  Ge815  1  0.71932432  0.84317084  0.90625284  1
  Ge  Ge816  1  0.96932432  0.09317084  0.15625284  1
  Ge  Ge817  1  0.96932432  0.09317084  0.40625284  1
  Ge  Ge818  1  0.96932432  0.09317084  0.65625284  1
  Ge  Ge819  1  0.96932432  0.09317084  0.90625284  1
  Ge  Ge820  1  0.96932432  0.34317084  0.15625284  1
  Ge  Ge821  1  0.96932432  0.34317084  0.40625284  1
  Ge  Ge822  1  0.96932432  0.34317084  0.65625284  1
  Ge  Ge823  1  0.96932432  0.34317084  0.90625284  1
  Ge  Ge824  1  0.96932432  0.59317084  0.15625284  1
  Ge  Ge825  1  0.96932432  0.59317084  0.40625284  1
  Ge  Ge826  1  0.96932432  0.59317084  0.65625284  1
  Ge  Ge827  1  0.96932432  0.59317084  0.90625284  1
  Ge  Ge828  1  0.96932432  0.84317084  0.15625284  1
  Ge  Ge829  1  0.96932432  0.84317084  0.40625284  1
  Ge  Ge830  1  0.96932432  0.84317084  0.65625284  1
  Ge  Ge831  1  0.96932432  0.84317084  0.90625284  1
  Ge  Ge832  1  0.09317175  0.15625083  0.21932664  1
  Ge  Ge833  1  0.09317175  0.15625083  0.46932664  1
  Ge  Ge834  1  0.09317175  0.15625083  0.71932664  1
  Ge  Ge835  1  0.09317175  0.15625083  0.96932664  1
  Ge  Ge836  1  0.09317175  0.40625083  0.21932664  1
  Ge  Ge837  1  0.09317175  0.40625083  0.46932664  1
  Ge  Ge838  1  0.09317175  0.40625083  0.71932664  1
  Ge  Ge839  1  0.09317175  0.40625083  0.96932664  1
  Ge  Ge840  1  0.09317175  0.65625083  0.21932664  1
  Ge  Ge841  1  0.09317175  0.65625083  0.46932664  1
  Ge  Ge842  1  0.09317175  0.65625083  0.71932664  1
  Ge  Ge843  1  0.09317175  0.65625083  0.96932664  1
  Ge  Ge844  1  0.09317175  0.90625083  0.21932664  1
  Ge  Ge845  1  0.09317175  0.90625083  0.46932664  1
  Ge  Ge846  1  0.09317175  0.90625083  0.71932664  1
  Ge  Ge847  1  0.09317175  0.90625083  0.96932664  1
  Ge  Ge848  1  0.34317175  0.15625083  0.21932665  1
  Ge  Ge849  1  0.34317175  0.15625083  0.46932664  1
  Ge  Ge850  1  0.34317175  0.15625083  0.71932664  1
  Ge  Ge851  1  0.34317175  0.15625083  0.96932664  1
  Ge  Ge852  1  0.34317175  0.40625083  0.21932664  1
  Ge  Ge853  1  0.34317175  0.40625083  0.46932664  1
  Ge  Ge854  1  0.34317175  0.40625083  0.71932664  1
  Ge  Ge855  1  0.34317175  0.40625083  0.96932664  1
  Ge  Ge856  1  0.34317175  0.65625083  0.21932665  1
  Ge  Ge857  1  0.34317175  0.65625083  0.46932664  1
  Ge  Ge858  1  0.34317175  0.65625083  0.71932664  1
  Ge  Ge859  1  0.34317175  0.65625083  0.96932664  1
  Ge  Ge860  1  0.34317175  0.90625083  0.21932664  1
  Ge  Ge861  1  0.34317175  0.90625083  0.46932664  1
  Ge  Ge862  1  0.34317175  0.90625083  0.71932664  1
  Ge  Ge863  1  0.34317175  0.90625083  0.96932664  1
  Ge  Ge864  1  0.59317175  0.15625083  0.21932664  1
  Ge  Ge865  1  0.59317175  0.15625083  0.46932664  1
  Ge  Ge866  1  0.59317175  0.15625083  0.71932664  1
  Ge  Ge867  1  0.59317175  0.15625083  0.96932664  1
  Ge  Ge868  1  0.59317175  0.40625083  0.21932665  1
  Ge  Ge869  1  0.59317175  0.40625083  0.46932664  1
  Ge  Ge870  1  0.59317175  0.40625083  0.71932664  1
  Ge  Ge871  1  0.59317175  0.40625083  0.96932664  1
  Ge  Ge872  1  0.59317175  0.65625083  0.21932664  1
  Ge  Ge873  1  0.59317175  0.65625083  0.46932664  1
  Ge  Ge874  1  0.59317175  0.65625083  0.71932664  1
  Ge  Ge875  1  0.59317175  0.65625083  0.96932664  1
  Ge  Ge876  1  0.59317175  0.90625083  0.21932665  1
  Ge  Ge877  1  0.59317175  0.90625083  0.46932664  1
  Ge  Ge878  1  0.59317175  0.90625083  0.71932664  1
  Ge  Ge879  1  0.59317175  0.90625083  0.96932664  1
  Ge  Ge880  1  0.84317175  0.15625083  0.21932665  1
  Ge  Ge881  1  0.84317175  0.15625083  0.46932664  1
  Ge  Ge882  1  0.84317175  0.15625083  0.71932664  1
  Ge  Ge883  1  0.84317175  0.15625083  0.96932664  1
  Ge  Ge884  1  0.84317175  0.40625083  0.21932664  1
  Ge  Ge885  1  0.84317175  0.40625083  0.46932664  1
  Ge  Ge886  1  0.84317175  0.40625083  0.71932664  1
  Ge  Ge887  1  0.84317175  0.40625083  0.96932664  1
  Ge  Ge888  1  0.84317175  0.65625083  0.21932665  1
  Ge  Ge889  1  0.84317175  0.65625083  0.46932664  1
  Ge  Ge890  1  0.84317175  0.65625083  0.71932664  1
  Ge  Ge891  1  0.84317175  0.65625083  0.96932664  1
  Ge  Ge892  1  0.84317175  0.90625083  0.21932664  1
  Ge  Ge893  1  0.84317175  0.90625083  0.46932664  1
  Ge  Ge894  1  0.84317175  0.90625083  0.71932664  1
  Ge  Ge895  1  0.84317175  0.90625083  0.96932664  1
  Ge  Ge896  1  0.15682670  0.03124968  0.15567104  1
  Ge  Ge897  1  0.15682670  0.03124968  0.40567104  1
  Ge  Ge898  1  0.15682670  0.03124968  0.65567104  1
  Ge  Ge899  1  0.15682670  0.03124968  0.90567104  1
  Ge  Ge900  1  0.15682670  0.28124968  0.15567104  1
  Ge  Ge901  1  0.15682670  0.28124968  0.40567104  1
  Ge  Ge902  1  0.15682670  0.28124968  0.65567104  1
  Ge  Ge903  1  0.15682670  0.28124968  0.90567104  1
  Ge  Ge904  1  0.15682670  0.53124968  0.15567104  1
  Ge  Ge905  1  0.15682670  0.53124968  0.40567104  1
  Ge  Ge906  1  0.15682670  0.53124968  0.65567104  1
  Ge  Ge907  1  0.15682670  0.53124968  0.90567104  1
  Ge  Ge908  1  0.15682670  0.78124968  0.15567104  1
  Ge  Ge909  1  0.15682670  0.78124968  0.40567104  1
  Ge  Ge910  1  0.15682670  0.78124968  0.65567104  1
  Ge  Ge911  1  0.15682670  0.78124968  0.90567104  1
  Ge  Ge912  1  0.40682670  0.03124968  0.15567104  1
  Ge  Ge913  1  0.40682670  0.03124968  0.40567104  1
  Ge  Ge914  1  0.40682670  0.03124968  0.65567104  1
  Ge  Ge915  1  0.40682670  0.03124968  0.90567104  1
  Ge  Ge916  1  0.40682670  0.28124968  0.15567104  1
  Ge  Ge917  1  0.40682670  0.28124968  0.40567104  1
  Ge  Ge918  1  0.40682670  0.28124968  0.65567104  1
  Ge  Ge919  1  0.40682670  0.28124968  0.90567104  1
  Ge  Ge920  1  0.40682670  0.53124968  0.15567104  1
  Ge  Ge921  1  0.40682670  0.53124968  0.40567104  1
  Ge  Ge922  1  0.40682670  0.53124968  0.65567104  1
  Ge  Ge923  1  0.40682670  0.53124968  0.90567104  1
  Ge  Ge924  1  0.40682670  0.78124968  0.15567104  1
  Ge  Ge925  1  0.40682670  0.78124968  0.40567104  1
  Ge  Ge926  1  0.40682670  0.78124968  0.65567104  1
  Ge  Ge927  1  0.40682670  0.78124968  0.90567104  1
  Ge  Ge928  1  0.65682670  0.03124968  0.15567104  1
  Ge  Ge929  1  0.65682670  0.03124968  0.40567104  1
  Ge  Ge930  1  0.65682670  0.03124968  0.65567104  1
  Ge  Ge931  1  0.65682670  0.03124968  0.90567104  1
  Ge  Ge932  1  0.65682670  0.28124968  0.15567104  1
  Ge  Ge933  1  0.65682670  0.28124968  0.40567104  1
  Ge  Ge934  1  0.65682670  0.28124968  0.65567104  1
  Ge  Ge935  1  0.65682670  0.28124968  0.90567104  1
  Ge  Ge936  1  0.65682670  0.53124968  0.15567104  1
  Ge  Ge937  1  0.65682670  0.53124968  0.40567104  1
  Ge  Ge938  1  0.65682670  0.53124968  0.65567104  1
  Ge  Ge939  1  0.65682670  0.53124968  0.90567104  1
  Ge  Ge940  1  0.65682670  0.78124968  0.15567104  1
  Ge  Ge941  1  0.65682670  0.78124968  0.40567104  1
  Ge  Ge942  1  0.65682670  0.78124968  0.65567104  1
  Ge  Ge943  1  0.65682670  0.78124968  0.90567104  1
  Ge  Ge944  1  0.90682670  0.03124968  0.15567104  1
  Ge  Ge945  1  0.90682670  0.03124968  0.40567104  1
  Ge  Ge946  1  0.90682670  0.03124968  0.65567104  1
  Ge  Ge947  1  0.90682670  0.03124968  0.90567104  1
  Ge  Ge948  1  0.90682670  0.28124968  0.15567104  1
  Ge  Ge949  1  0.90682670  0.28124968  0.40567104  1
  Ge  Ge950  1  0.90682670  0.28124968  0.65567104  1
  Ge  Ge951  1  0.90682670  0.28124968  0.90567104  1
  Ge  Ge952  1  0.90682670  0.53124968  0.15567104  1
  Ge  Ge953  1  0.90682670  0.53124968  0.40567104  1
  Ge  Ge954  1  0.90682670  0.53124968  0.65567104  1
  Ge  Ge955  1  0.90682670  0.53124968  0.90567104  1
  Ge  Ge956  1  0.90682670  0.78124968  0.15567104  1
  Ge  Ge957  1  0.90682670  0.78124968  0.40567104  1
  Ge  Ge958  1  0.90682670  0.78124968  0.65567104  1
  Ge  Ge959  1  0.90682670  0.78124968  0.90567104  1
  Ge  Ge960  1  0.21817612  0.21875371  0.03066948  1
  Ge  Ge961  1  0.21817612  0.21875370  0.28066948  1
  Ge  Ge962  1  0.21817612  0.21875371  0.53066948  1
  Ge  Ge963  1  0.21817612  0.21875370  0.78066948  1
  Ge  Ge964  1  0.21817612  0.46875371  0.03066948  1
  Ge  Ge965  1  0.21817612  0.46875371  0.28066948  1
  Ge  Ge966  1  0.21817612  0.46875371  0.53066948  1
  Ge  Ge967  1  0.21817612  0.46875371  0.78066948  1
  Ge  Ge968  1  0.21817612  0.71875371  0.03066948  1
  Ge  Ge969  1  0.21817612  0.71875370  0.28066948  1
  Ge  Ge970  1  0.21817612  0.71875371  0.53066948  1
  Ge  Ge971  1  0.21817612  0.71875371  0.78066948  1
  Ge  Ge972  1  0.21817612  0.96875371  0.03066948  1
  Ge  Ge973  1  0.21817612  0.96875371  0.28066948  1
  Ge  Ge974  1  0.21817612  0.96875371  0.53066948  1
  Ge  Ge975  1  0.21817612  0.96875371  0.78066948  1
  Ge  Ge976  1  0.46817612  0.21875371  0.03066948  1
  Ge  Ge977  1  0.46817612  0.21875370  0.28066948  1
  Ge  Ge978  1  0.46817612  0.21875371  0.53066948  1
  Ge  Ge979  1  0.46817612  0.21875370  0.78066948  1
  Ge  Ge980  1  0.46817612  0.46875371  0.03066948  1
  Ge  Ge981  1  0.46817612  0.46875371  0.28066948  1
  Ge  Ge982  1  0.46817612  0.46875371  0.53066948  1
  Ge  Ge983  1  0.46817612  0.46875371  0.78066948  1
  Ge  Ge984  1  0.46817612  0.71875371  0.03066948  1
  Ge  Ge985  1  0.46817612  0.71875370  0.28066948  1
  Ge  Ge986  1  0.46817612  0.71875371  0.53066948  1
  Ge  Ge987  1  0.46817612  0.71875371  0.78066948  1
  Ge  Ge988  1  0.46817612  0.96875371  0.03066948  1
  Ge  Ge989  1  0.46817612  0.96875371  0.28066948  1
  Ge  Ge990  1  0.46817612  0.96875371  0.53066948  1
  Ge  Ge991  1  0.46817612  0.96875371  0.78066948  1
  Ge  Ge992  1  0.71817612  0.21875371  0.03066948  1
  Ge  Ge993  1  0.71817612  0.21875370  0.28066948  1
  Ge  Ge994  1  0.71817612  0.21875370  0.53066948  1
  Ge  Ge995  1  0.71817612  0.21875370  0.78066948  1
  Ge  Ge996  1  0.71817612  0.46875371  0.03066948  1
  Ge  Ge997  1  0.71817612  0.46875371  0.28066948  1
  Ge  Ge998  1  0.71817612  0.46875371  0.53066948  1
  Ge  Ge999  1  0.71817612  0.46875371  0.78066948  1
  Ge  Ge1000  1  0.71817612  0.71875371  0.03066948  1
  Ge  Ge1001  1  0.71817612  0.71875370  0.28066948  1
  Ge  Ge1002  1  0.71817612  0.71875371  0.53066948  1
  Ge  Ge1003  1  0.71817612  0.71875371  0.78066948  1
  Ge  Ge1004  1  0.71817612  0.96875371  0.03066948  1
  Ge  Ge1005  1  0.71817612  0.96875371  0.28066948  1
  Ge  Ge1006  1  0.71817612  0.96875371  0.53066948  1
  Ge  Ge1007  1  0.71817612  0.96875371  0.78066948  1
  Ge  Ge1008  1  0.96817612  0.21875370  0.03066948  1
  Ge  Ge1009  1  0.96817612  0.21875371  0.28066948  1
  Ge  Ge1010  1  0.96817612  0.21875371  0.53066948  1
  Ge  Ge1011  1  0.96817612  0.21875371  0.78066948  1
  Ge  Ge1012  1  0.96817612  0.46875371  0.03066948  1
  Ge  Ge1013  1  0.96817612  0.46875371  0.28066948  1
  Ge  Ge1014  1  0.96817612  0.46875371  0.53066948  1
  Ge  Ge1015  1  0.96817612  0.46875371  0.78066948  1
  Ge  Ge1016  1  0.96817612  0.71875371  0.03066948  1
  Ge  Ge1017  1  0.96817612  0.71875370  0.28066948  1
  Ge  Ge1018  1  0.96817612  0.71875371  0.53066948  1
  Ge  Ge1019  1  0.96817612  0.71875371  0.78066948  1
  Ge  Ge1020  1  0.96817612  0.96875371  0.03066948  1
  Ge  Ge1021  1  0.96817612  0.96875371  0.28066948  1
  Ge  Ge1022  1  0.96817612  0.96875371  0.53066948  1
  Ge  Ge1023  1  0.96817612  0.96875371  0.78066948  1
  Ge  Ge1024  1  0.03067270  0.21817217  0.21875006  1
  Ge  Ge1025  1  0.03067270  0.21817217  0.46875006  1
  Ge  Ge1026  1  0.03067270  0.21817217  0.71875006  1
  Ge  Ge1027  1  0.03067270  0.21817217  0.96875006  1
  Ge  Ge1028  1  0.03067270  0.46817217  0.21875006  1
  Ge  Ge1029  1  0.03067270  0.46817217  0.46875006  1
  Ge  Ge1030  1  0.03067270  0.46817217  0.71875006  1
  Ge  Ge1031  1  0.03067270  0.46817217  0.96875006  1
  Ge  Ge1032  1  0.03067270  0.71817217  0.21875006  1
  Ge  Ge1033  1  0.03067270  0.71817217  0.46875006  1
  Ge  Ge1034  1  0.03067270  0.71817217  0.71875006  1
  Ge  Ge1035  1  0.03067270  0.71817217  0.96875006  1
  Ge  Ge1036  1  0.03067270  0.96817217  0.21875006  1
  Ge  Ge1037  1  0.03067270  0.96817217  0.46875006  1
  Ge  Ge1038  1  0.03067270  0.96817217  0.71875006  1
  Ge  Ge1039  1  0.03067270  0.96817217  0.96875006  1
  Ge  Ge1040  1  0.28067270  0.21817217  0.21875006  1
  Ge  Ge1041  1  0.28067270  0.21817217  0.46875006  1
  Ge  Ge1042  1  0.28067270  0.21817217  0.71875006  1
  Ge  Ge1043  1  0.28067270  0.21817217  0.96875006  1
  Ge  Ge1044  1  0.28067270  0.46817217  0.21875006  1
  Ge  Ge1045  1  0.28067270  0.46817217  0.46875006  1
  Ge  Ge1046  1  0.28067270  0.46817217  0.71875006  1
  Ge  Ge1047  1  0.28067270  0.46817217  0.96875006  1
  Ge  Ge1048  1  0.28067270  0.71817217  0.21875006  1
  Ge  Ge1049  1  0.28067270  0.71817217  0.46875006  1
  Ge  Ge1050  1  0.28067270  0.71817217  0.71875006  1
  Ge  Ge1051  1  0.28067270  0.71817217  0.96875006  1
  Ge  Ge1052  1  0.28067270  0.96817217  0.21875006  1
  Ge  Ge1053  1  0.28067270  0.96817217  0.46875006  1
  Ge  Ge1054  1  0.28067270  0.96817217  0.71875006  1
  Ge  Ge1055  1  0.28067270  0.96817217  0.96875006  1
  Ge  Ge1056  1  0.53067270  0.21817217  0.21875006  1
  Ge  Ge1057  1  0.53067270  0.21817217  0.46875006  1
  Ge  Ge1058  1  0.53067270  0.21817217  0.71875006  1
  Ge  Ge1059  1  0.53067270  0.21817217  0.96875006  1
  Ge  Ge1060  1  0.53067270  0.46817217  0.21875006  1
  Ge  Ge1061  1  0.53067270  0.46817217  0.46875006  1
  Ge  Ge1062  1  0.53067270  0.46817217  0.71875006  1
  Ge  Ge1063  1  0.53067270  0.46817217  0.96875006  1
  Ge  Ge1064  1  0.53067270  0.71817217  0.21875006  1
  Ge  Ge1065  1  0.53067270  0.71817217  0.46875006  1
  Ge  Ge1066  1  0.53067270  0.71817217  0.71875006  1
  Ge  Ge1067  1  0.53067270  0.71817217  0.96875006  1
  Ge  Ge1068  1  0.53067270  0.96817217  0.21875006  1
  Ge  Ge1069  1  0.53067270  0.96817217  0.46875006  1
  Ge  Ge1070  1  0.53067270  0.96817217  0.71875006  1
  Ge  Ge1071  1  0.53067270  0.96817217  0.96875006  1
  Ge  Ge1072  1  0.78067270  0.21817217  0.21875006  1
  Ge  Ge1073  1  0.78067270  0.21817217  0.46875006  1
  Ge  Ge1074  1  0.78067270  0.21817217  0.71875006  1
  Ge  Ge1075  1  0.78067270  0.21817217  0.96875006  1
  Ge  Ge1076  1  0.78067270  0.46817217  0.21875006  1
  Ge  Ge1077  1  0.78067270  0.46817217  0.46875006  1
  Ge  Ge1078  1  0.78067270  0.46817217  0.71875006  1
  Ge  Ge1079  1  0.78067270  0.46817217  0.96875006  1
  Ge  Ge1080  1  0.78067270  0.71817217  0.21875006  1
  Ge  Ge1081  1  0.78067270  0.71817217  0.46875006  1
  Ge  Ge1082  1  0.78067270  0.71817217  0.71875006  1
  Ge  Ge1083  1  0.78067270  0.71817217  0.96875006  1
  Ge  Ge1084  1  0.78067270  0.96817217  0.21875006  1
  Ge  Ge1085  1  0.78067270  0.96817217  0.46875006  1
  Ge  Ge1086  1  0.78067270  0.96817217  0.71875006  1
  Ge  Ge1087  1  0.78067270  0.96817217  0.96875006  1
  Ge  Ge1088  1  0.15567000  0.15682361  0.03124728  1
  Ge  Ge1089  1  0.15567000  0.15682361  0.28124728  1
  Ge  Ge1090  1  0.15567000  0.15682361  0.53124728  1
  Ge  Ge1091  1  0.15567000  0.15682361  0.78124728  1
  Ge  Ge1092  1  0.15567000  0.40682361  0.03124728  1
  Ge  Ge1093  1  0.15567000  0.40682361  0.28124728  1
  Ge  Ge1094  1  0.15567000  0.40682361  0.53124728  1
  Ge  Ge1095  1  0.15567000  0.40682361  0.78124728  1
  Ge  Ge1096  1  0.15567000  0.65682361  0.03124728  1
  Ge  Ge1097  1  0.15567000  0.65682361  0.28124728  1
  Ge  Ge1098  1  0.15567000  0.65682361  0.53124728  1
  Ge  Ge1099  1  0.15567000  0.65682361  0.78124728  1
  Ge  Ge1100  1  0.15567000  0.90682361  0.03124728  1
  Ge  Ge1101  1  0.15567000  0.90682361  0.28124728  1
  Ge  Ge1102  1  0.15567000  0.90682361  0.53124728  1
  Ge  Ge1103  1  0.15567000  0.90682361  0.78124728  1
  Ge  Ge1104  1  0.40567000  0.15682361  0.03124728  1
  Ge  Ge1105  1  0.40567000  0.15682361  0.28124728  1
  Ge  Ge1106  1  0.40567000  0.15682361  0.53124728  1
  Ge  Ge1107  1  0.40567000  0.15682361  0.78124728  1
  Ge  Ge1108  1  0.40567000  0.40682361  0.03124728  1
  Ge  Ge1109  1  0.40567000  0.40682361  0.28124728  1
  Ge  Ge1110  1  0.40567000  0.40682361  0.53124728  1
  Ge  Ge1111  1  0.40567000  0.40682361  0.78124728  1
  Ge  Ge1112  1  0.40567000  0.65682361  0.03124728  1
  Ge  Ge1113  1  0.40567000  0.65682361  0.28124728  1
  Ge  Ge1114  1  0.40567000  0.65682361  0.53124728  1
  Ge  Ge1115  1  0.40567000  0.65682361  0.78124728  1
  Ge  Ge1116  1  0.40567000  0.90682361  0.03124728  1
  Ge  Ge1117  1  0.40567000  0.90682361  0.28124728  1
  Ge  Ge1118  1  0.40567000  0.90682361  0.53124728  1
  Ge  Ge1119  1  0.40567000  0.90682361  0.78124728  1
  Ge  Ge1120  1  0.65567000  0.15682361  0.03124728  1
  Ge  Ge1121  1  0.65567000  0.15682361  0.28124728  1
  Ge  Ge1122  1  0.65567000  0.15682361  0.53124728  1
  Ge  Ge1123  1  0.65567000  0.15682361  0.78124728  1
  Ge  Ge1124  1  0.65567000  0.40682361  0.03124728  1
  Ge  Ge1125  1  0.65567000  0.40682361  0.28124728  1
  Ge  Ge1126  1  0.65567000  0.40682361  0.53124728  1
  Ge  Ge1127  1  0.65567000  0.40682361  0.78124728  1
  Ge  Ge1128  1  0.65567000  0.65682361  0.03124728  1
  Ge  Ge1129  1  0.65567000  0.65682361  0.28124728  1
  Ge  Ge1130  1  0.65567000  0.65682361  0.53124728  1
  Ge  Ge1131  1  0.65567000  0.65682361  0.78124728  1
  Ge  Ge1132  1  0.65567000  0.90682361  0.03124728  1
  Ge  Ge1133  1  0.65567000  0.90682361  0.28124728  1
  Ge  Ge1134  1  0.65567000  0.90682361  0.53124728  1
  Ge  Ge1135  1  0.65567000  0.90682361  0.78124728  1
  Ge  Ge1136  1  0.90567000  0.15682361  0.03124728  1
  Ge  Ge1137  1  0.90567000  0.15682361  0.28124728  1
  Ge  Ge1138  1  0.90567000  0.15682361  0.53124728  1
  Ge  Ge1139  1  0.90567000  0.15682361  0.78124728  1
  Ge  Ge1140  1  0.90567000  0.40682361  0.03124728  1
  Ge  Ge1141  1  0.90567000  0.40682361  0.28124728  1
  Ge  Ge1142  1  0.90567000  0.40682361  0.53124728  1
  Ge  Ge1143  1  0.90567000  0.40682361  0.78124728  1
  Ge  Ge1144  1  0.90567000  0.65682361  0.03124728  1
  Ge  Ge1145  1  0.90567000  0.65682361  0.28124728  1
  Ge  Ge1146  1  0.90567000  0.65682361  0.53124728  1
  Ge  Ge1147  1  0.90567000  0.65682361  0.78124728  1
  Ge  Ge1148  1  0.90567000  0.90682361  0.03124728  1
  Ge  Ge1149  1  0.90567000  0.90682361  0.28124728  1
  Ge  Ge1150  1  0.90567000  0.90682361  0.53124728  1
  Ge  Ge1151  1  0.90567000  0.90682361  0.78124728  1
  Ge  Ge1152  1  0.21875073  0.03067162  0.21817371  1
  Ge  Ge1153  1  0.21875074  0.03067162  0.46817371  1
  Ge  Ge1154  1  0.21875074  0.03067162  0.71817371  1
  Ge  Ge1155  1  0.21875073  0.03067162  0.96817371  1
  Ge  Ge1156  1  0.21875074  0.28067162  0.21817371  1
  Ge  Ge1157  1  0.21875074  0.28067162  0.46817371  1
  Ge  Ge1158  1  0.21875074  0.28067162  0.71817371  1
  Ge  Ge1159  1  0.21875074  0.28067162  0.96817371  1
  Ge  Ge1160  1  0.21875074  0.53067162  0.21817371  1
  Ge  Ge1161  1  0.21875073  0.53067162  0.46817371  1
  Ge  Ge1162  1  0.21875073  0.53067162  0.71817371  1
  Ge  Ge1163  1  0.21875074  0.53067162  0.96817371  1
  Ge  Ge1164  1  0.21875074  0.78067162  0.21817371  1
  Ge  Ge1165  1  0.21875073  0.78067162  0.46817371  1
  Ge  Ge1166  1  0.21875074  0.78067162  0.71817371  1
  Ge  Ge1167  1  0.21875073  0.78067162  0.96817371  1
  Ge  Ge1168  1  0.46875074  0.03067162  0.21817371  1
  Ge  Ge1169  1  0.46875073  0.03067162  0.46817371  1
  Ge  Ge1170  1  0.46875074  0.03067162  0.71817371  1
  Ge  Ge1171  1  0.46875073  0.03067162  0.96817371  1
  Ge  Ge1172  1  0.46875074  0.28067162  0.21817371  1
  Ge  Ge1173  1  0.46875073  0.28067162  0.46817371  1
  Ge  Ge1174  1  0.46875074  0.28067162  0.71817371  1
  Ge  Ge1175  1  0.46875073  0.28067162  0.96817371  1
  Ge  Ge1176  1  0.46875073  0.53067162  0.21817371  1
  Ge  Ge1177  1  0.46875073  0.53067162  0.46817371  1
  Ge  Ge1178  1  0.46875073  0.53067162  0.71817371  1
  Ge  Ge1179  1  0.46875073  0.53067162  0.96817371  1
  Ge  Ge1180  1  0.46875073  0.78067162  0.21817371  1
  Ge  Ge1181  1  0.46875073  0.78067162  0.46817371  1
  Ge  Ge1182  1  0.46875073  0.78067162  0.71817371  1
  Ge  Ge1183  1  0.46875073  0.78067162  0.96817371  1
  Ge  Ge1184  1  0.71875073  0.03067162  0.21817371  1
  Ge  Ge1185  1  0.71875073  0.03067162  0.46817371  1
  Ge  Ge1186  1  0.71875073  0.03067162  0.71817371  1
  Ge  Ge1187  1  0.71875073  0.03067162  0.96817371  1
  Ge  Ge1188  1  0.71875074  0.28067162  0.21817371  1
  Ge  Ge1189  1  0.71875073  0.28067162  0.46817371  1
  Ge  Ge1190  1  0.71875073  0.28067162  0.71817371  1
  Ge  Ge1191  1  0.71875073  0.28067162  0.96817371  1
  Ge  Ge1192  1  0.71875073  0.53067162  0.21817371  1
  Ge  Ge1193  1  0.71875073  0.53067162  0.46817371  1
  Ge  Ge1194  1  0.71875073  0.53067162  0.71817371  1
  Ge  Ge1195  1  0.71875073  0.53067162  0.96817371  1
  Ge  Ge1196  1  0.71875074  0.78067162  0.21817371  1
  Ge  Ge1197  1  0.71875073  0.78067162  0.46817371  1
  Ge  Ge1198  1  0.71875073  0.78067162  0.71817371  1
  Ge  Ge1199  1  0.71875074  0.78067162  0.96817371  1
  Ge  Ge1200  1  0.96875073  0.03067162  0.21817371  1
  Ge  Ge1201  1  0.96875073  0.03067162  0.46817371  1
  Ge  Ge1202  1  0.96875073  0.03067162  0.71817371  1
  Ge  Ge1203  1  0.96875073  0.03067162  0.96817371  1
  Ge  Ge1204  1  0.96875073  0.28067162  0.21817371  1
  Ge  Ge1205  1  0.96875073  0.28067162  0.46817371  1
  Ge  Ge1206  1  0.96875073  0.28067162  0.71817371  1
  Ge  Ge1207  1  0.96875073  0.28067162  0.96817371  1
  Ge  Ge1208  1  0.96875074  0.53067162  0.21817371  1
  Ge  Ge1209  1  0.96875073  0.53067162  0.46817371  1
  Ge  Ge1210  1  0.96875073  0.53067162  0.71817371  1
  Ge  Ge1211  1  0.96875073  0.53067162  0.96817371  1
  Ge  Ge1212  1  0.96875074  0.78067162  0.21817371  1
  Ge  Ge1213  1  0.96875073  0.78067162  0.46817371  1
  Ge  Ge1214  1  0.96875073  0.78067162  0.71817371  1
  Ge  Ge1215  1  0.96875073  0.78067162  0.96817371  1
  Ge  Ge1216  1  0.09374969  0.09432767  0.03182877  1
  Ge  Ge1217  1  0.09374969  0.09432767  0.28182877  1
  Ge  Ge1218  1  0.09374969  0.09432767  0.53182877  1
  Ge  Ge1219  1  0.09374969  0.09432767  0.78182877  1
  Ge  Ge1220  1  0.09374969  0.34432767  0.03182877  1
  Ge  Ge1221  1  0.09374969  0.34432767  0.28182877  1
  Ge  Ge1222  1  0.09374969  0.34432767  0.53182877  1
  Ge  Ge1223  1  0.09374969  0.34432767  0.78182877  1
  Ge  Ge1224  1  0.09374969  0.59432767  0.03182877  1
  Ge  Ge1225  1  0.09374969  0.59432767  0.28182877  1
  Ge  Ge1226  1  0.09374969  0.59432767  0.53182877  1
  Ge  Ge1227  1  0.09374969  0.59432767  0.78182877  1
  Ge  Ge1228  1  0.09374969  0.84432767  0.03182877  1
  Ge  Ge1229  1  0.09374969  0.84432767  0.28182877  1
  Ge  Ge1230  1  0.09374969  0.84432767  0.53182877  1
  Ge  Ge1231  1  0.09374969  0.84432767  0.78182877  1
  Ge  Ge1232  1  0.34374969  0.09432767  0.03182877  1
  Ge  Ge1233  1  0.34374969  0.09432767  0.28182877  1
  Ge  Ge1234  1  0.34374969  0.09432767  0.53182877  1
  Ge  Ge1235  1  0.34374969  0.09432767  0.78182877  1
  Ge  Ge1236  1  0.34374969  0.34432767  0.03182877  1
  Ge  Ge1237  1  0.34374969  0.34432767  0.28182877  1
  Ge  Ge1238  1  0.34374969  0.34432767  0.53182877  1
  Ge  Ge1239  1  0.34374969  0.34432767  0.78182877  1
  Ge  Ge1240  1  0.34374969  0.59432767  0.03182877  1
  Ge  Ge1241  1  0.34374969  0.59432767  0.28182877  1
  Ge  Ge1242  1  0.34374969  0.59432767  0.53182877  1
  Ge  Ge1243  1  0.34374969  0.59432767  0.78182877  1
  Ge  Ge1244  1  0.34374969  0.84432767  0.03182877  1
  Ge  Ge1245  1  0.34374969  0.84432767  0.28182877  1
  Ge  Ge1246  1  0.34374969  0.84432767  0.53182877  1
  Ge  Ge1247  1  0.34374969  0.84432767  0.78182877  1
  Ge  Ge1248  1  0.59374969  0.09432767  0.03182877  1
  Ge  Ge1249  1  0.59374969  0.09432767  0.28182877  1
  Ge  Ge1250  1  0.59374969  0.09432767  0.53182877  1
  Ge  Ge1251  1  0.59374969  0.09432767  0.78182877  1
  Ge  Ge1252  1  0.59374969  0.34432767  0.03182877  1
  Ge  Ge1253  1  0.59374969  0.34432767  0.28182877  1
  Ge  Ge1254  1  0.59374969  0.34432767  0.53182877  1
  Ge  Ge1255  1  0.59374969  0.34432767  0.78182877  1
  Ge  Ge1256  1  0.59374969  0.59432767  0.03182877  1
  Ge  Ge1257  1  0.59374969  0.59432767  0.28182877  1
  Ge  Ge1258  1  0.59374969  0.59432767  0.53182877  1
  Ge  Ge1259  1  0.59374969  0.59432767  0.78182877  1
  Ge  Ge1260  1  0.59374969  0.84432767  0.03182877  1
  Ge  Ge1261  1  0.59374969  0.84432767  0.28182877  1
  Ge  Ge1262  1  0.59374969  0.84432767  0.53182877  1
  Ge  Ge1263  1  0.59374969  0.84432767  0.78182877  1
  Ge  Ge1264  1  0.84374969  0.09432767  0.03182877  1
  Ge  Ge1265  1  0.84374969  0.09432767  0.28182877  1
  Ge  Ge1266  1  0.84374969  0.09432767  0.53182877  1
  Ge  Ge1267  1  0.84374969  0.09432767  0.78182877  1
  Ge  Ge1268  1  0.84374969  0.34432767  0.03182877  1
  Ge  Ge1269  1  0.84374969  0.34432767  0.28182877  1
  Ge  Ge1270  1  0.84374969  0.34432767  0.53182877  1
  Ge  Ge1271  1  0.84374969  0.34432767  0.78182877  1
  Ge  Ge1272  1  0.84374969  0.59432767  0.03182877  1
  Ge  Ge1273  1  0.84374969  0.59432767  0.28182877  1
  Ge  Ge1274  1  0.84374969  0.59432767  0.53182877  1
  Ge  Ge1275  1  0.84374969  0.59432767  0.78182877  1
  Ge  Ge1276  1  0.84374969  0.84432767  0.03182877  1
  Ge  Ge1277  1  0.84374969  0.84432767  0.28182877  1
  Ge  Ge1278  1  0.84374969  0.84432767  0.53182877  1
  Ge  Ge1279  1  0.84374969  0.84432767  0.78182877  1
  Ge  Ge1280  1  0.15624674  0.21933082  0.09317609  1
  Ge  Ge1281  1  0.15624674  0.21933082  0.34317609  1
  Ge  Ge1282  1  0.15624675  0.21933082  0.59317609  1
  Ge  Ge1283  1  0.15624674  0.21933082  0.84317609  1
  Ge  Ge1284  1  0.15624674  0.46933082  0.09317609  1
  Ge  Ge1285  1  0.15624674  0.46933082  0.34317609  1
  Ge  Ge1286  1  0.15624674  0.46933082  0.59317609  1
  Ge  Ge1287  1  0.15624674  0.46933082  0.84317609  1
  Ge  Ge1288  1  0.15624674  0.71933082  0.09317609  1
  Ge  Ge1289  1  0.15624674  0.71933082  0.34317609  1
  Ge  Ge1290  1  0.15624674  0.71933082  0.59317609  1
  Ge  Ge1291  1  0.15624674  0.71933082  0.84317609  1
  Ge  Ge1292  1  0.15624675  0.96933082  0.09317609  1
  Ge  Ge1293  1  0.15624674  0.96933082  0.34317609  1
  Ge  Ge1294  1  0.15624675  0.96933082  0.59317609  1
  Ge  Ge1295  1  0.15624674  0.96933082  0.84317609  1
  Ge  Ge1296  1  0.40624675  0.21933082  0.09317609  1
  Ge  Ge1297  1  0.40624674  0.21933082  0.34317609  1
  Ge  Ge1298  1  0.40624675  0.21933082  0.59317609  1
  Ge  Ge1299  1  0.40624674  0.21933082  0.84317609  1
  Ge  Ge1300  1  0.40624675  0.46933082  0.09317609  1
  Ge  Ge1301  1  0.40624674  0.46933082  0.34317609  1
  Ge  Ge1302  1  0.40624675  0.46933082  0.59317609  1
  Ge  Ge1303  1  0.40624674  0.46933082  0.84317609  1
  Ge  Ge1304  1  0.40624674  0.71933082  0.09317609  1
  Ge  Ge1305  1  0.40624675  0.71933081  0.34317609  1
  Ge  Ge1306  1  0.40624674  0.71933082  0.59317609  1
  Ge  Ge1307  1  0.40624674  0.71933082  0.84317609  1
  Ge  Ge1308  1  0.40624674  0.96933082  0.09317609  1
  Ge  Ge1309  1  0.40624675  0.96933082  0.34317609  1
  Ge  Ge1310  1  0.40624674  0.96933082  0.59317609  1
  Ge  Ge1311  1  0.40624674  0.96933082  0.84317609  1
  Ge  Ge1312  1  0.65624674  0.21933082  0.09317609  1
  Ge  Ge1313  1  0.65624674  0.21933082  0.34317609  1
  Ge  Ge1314  1  0.65624675  0.21933082  0.59317609  1
  Ge  Ge1315  1  0.65624674  0.21933082  0.84317609  1
  Ge  Ge1316  1  0.65624675  0.46933082  0.09317609  1
  Ge  Ge1317  1  0.65624674  0.46933082  0.34317609  1
  Ge  Ge1318  1  0.65624675  0.46933082  0.59317609  1
  Ge  Ge1319  1  0.65624675  0.46933082  0.84317609  1
  Ge  Ge1320  1  0.65624675  0.71933082  0.09317609  1
  Ge  Ge1321  1  0.65624674  0.71933081  0.34317609  1
  Ge  Ge1322  1  0.65624675  0.71933082  0.59317609  1
  Ge  Ge1323  1  0.65624674  0.71933082  0.84317609  1
  Ge  Ge1324  1  0.65624675  0.96933082  0.09317609  1
  Ge  Ge1325  1  0.65624674  0.96933082  0.34317609  1
  Ge  Ge1326  1  0.65624675  0.96933082  0.59317609  1
  Ge  Ge1327  1  0.65624675  0.96933082  0.84317609  1
  Ge  Ge1328  1  0.90624675  0.21933082  0.09317609  1
  Ge  Ge1329  1  0.90624674  0.21933082  0.34317609  1
  Ge  Ge1330  1  0.90624675  0.21933082  0.59317609  1
  Ge  Ge1331  1  0.90624675  0.21933082  0.84317609  1
  Ge  Ge1332  1  0.90624674  0.46933082  0.09317609  1
  Ge  Ge1333  1  0.90624674  0.46933082  0.34317609  1
  Ge  Ge1334  1  0.90624675  0.46933082  0.59317609  1
  Ge  Ge1335  1  0.90624674  0.46933082  0.84317609  1
  Ge  Ge1336  1  0.90624675  0.71933082  0.09317609  1
  Ge  Ge1337  1  0.90624674  0.71933081  0.34317609  1
  Ge  Ge1338  1  0.90624675  0.71933082  0.59317609  1
  Ge  Ge1339  1  0.90624675  0.71933082  0.84317609  1
  Ge  Ge1340  1  0.90624675  0.96933082  0.09317609  1
  Ge  Ge1341  1  0.90624674  0.96933082  0.34317609  1
  Ge  Ge1342  1  0.90624675  0.96933082  0.59317609  1
  Ge  Ge1343  1  0.90624674  0.96933082  0.84317609  1
  Ge  Ge1344  1  0.03183060  0.09374673  0.09432351  1
  Ge  Ge1345  1  0.03183060  0.09374673  0.34432350  1
  Ge  Ge1346  1  0.03183060  0.09374673  0.59432350  1
  Ge  Ge1347  1  0.03183060  0.09374673  0.84432350  1
  Ge  Ge1348  1  0.03183060  0.34374673  0.09432351  1
  Ge  Ge1349  1  0.03183060  0.34374673  0.34432350  1
  Ge  Ge1350  1  0.03183060  0.34374673  0.59432350  1
  Ge  Ge1351  1  0.03183060  0.34374673  0.84432350  1
  Ge  Ge1352  1  0.03183060  0.59374673  0.09432351  1
  Ge  Ge1353  1  0.03183060  0.59374673  0.34432350  1
  Ge  Ge1354  1  0.03183060  0.59374673  0.59432350  1
  Ge  Ge1355  1  0.03183060  0.59374673  0.84432350  1
  Ge  Ge1356  1  0.03183060  0.84374673  0.09432351  1
  Ge  Ge1357  1  0.03183060  0.84374673  0.34432350  1
  Ge  Ge1358  1  0.03183060  0.84374673  0.59432350  1
  Ge  Ge1359  1  0.03183060  0.84374673  0.84432350  1
  Ge  Ge1360  1  0.28183060  0.09374673  0.09432351  1
  Ge  Ge1361  1  0.28183060  0.09374673  0.34432350  1
  Ge  Ge1362  1  0.28183060  0.09374673  0.59432350  1
  Ge  Ge1363  1  0.28183060  0.09374673  0.84432350  1
  Ge  Ge1364  1  0.28183060  0.34374673  0.09432351  1
  Ge  Ge1365  1  0.28183060  0.34374673  0.34432350  1
  Ge  Ge1366  1  0.28183060  0.34374673  0.59432350  1
  Ge  Ge1367  1  0.28183060  0.34374673  0.84432350  1
  Ge  Ge1368  1  0.28183060  0.59374673  0.09432351  1
  Ge  Ge1369  1  0.28183060  0.59374673  0.34432350  1
  Ge  Ge1370  1  0.28183060  0.59374673  0.59432350  1
  Ge  Ge1371  1  0.28183060  0.59374673  0.84432350  1
  Ge  Ge1372  1  0.28183060  0.84374673  0.09432351  1
  Ge  Ge1373  1  0.28183060  0.84374673  0.34432350  1
  Ge  Ge1374  1  0.28183060  0.84374673  0.59432350  1
  Ge  Ge1375  1  0.28183060  0.84374673  0.84432350  1
  Ge  Ge1376  1  0.53183060  0.09374673  0.09432351  1
  Ge  Ge1377  1  0.53183060  0.09374673  0.34432350  1
  Ge  Ge1378  1  0.53183060  0.09374673  0.59432350  1
  Ge  Ge1379  1  0.53183060  0.09374673  0.84432350  1
  Ge  Ge1380  1  0.53183060  0.34374673  0.09432350  1
  Ge  Ge1381  1  0.53183060  0.34374673  0.34432350  1
  Ge  Ge1382  1  0.53183060  0.34374673  0.59432350  1
  Ge  Ge1383  1  0.53183060  0.34374673  0.84432350  1
  Ge  Ge1384  1  0.53183060  0.59374673  0.09432351  1
  Ge  Ge1385  1  0.53183060  0.59374673  0.34432350  1
  Ge  Ge1386  1  0.53183060  0.59374673  0.59432350  1
  Ge  Ge1387  1  0.53183060  0.59374673  0.84432350  1
  Ge  Ge1388  1  0.53183060  0.84374673  0.09432351  1
  Ge  Ge1389  1  0.53183060  0.84374673  0.34432350  1
  Ge  Ge1390  1  0.53183060  0.84374673  0.59432350  1
  Ge  Ge1391  1  0.53183060  0.84374673  0.84432350  1
  Ge  Ge1392  1  0.78183060  0.09374673  0.09432351  1
  Ge  Ge1393  1  0.78183060  0.09374673  0.34432350  1
  Ge  Ge1394  1  0.78183060  0.09374673  0.59432350  1
  Ge  Ge1395  1  0.78183060  0.09374673  0.84432350  1
  Ge  Ge1396  1  0.78183060  0.34374673  0.09432351  1
  Ge  Ge1397  1  0.78183060  0.34374673  0.34432350  1
  Ge  Ge1398  1  0.78183060  0.34374673  0.59432350  1
  Ge  Ge1399  1  0.78183060  0.34374673  0.84432350  1
  Ge  Ge1400  1  0.78183060  0.59374673  0.09432351  1
  Ge  Ge1401  1  0.78183060  0.59374673  0.34432350  1
  Ge  Ge1402  1  0.78183060  0.59374673  0.59432350  1
  Ge  Ge1403  1  0.78183060  0.59374673  0.84432350  1
  Ge  Ge1404  1  0.78183060  0.84374673  0.09432350  1
  Ge  Ge1405  1  0.78183060  0.84374673  0.34432350  1
  Ge  Ge1406  1  0.78183060  0.84374673  0.59432350  1
  Ge  Ge1407  1  0.78183060  0.84374673  0.84432350  1
  Ge  Ge1408  1  0.03125299  0.15567634  0.15683050  1
  Ge  Ge1409  1  0.03125299  0.15567634  0.40683050  1
  Ge  Ge1410  1  0.03125299  0.15567634  0.65683050  1
  Ge  Ge1411  1  0.03125299  0.15567634  0.90683050  1
  Ge  Ge1412  1  0.03125300  0.40567634  0.15683050  1
  Ge  Ge1413  1  0.03125300  0.40567635  0.40683050  1
  Ge  Ge1414  1  0.03125300  0.40567635  0.65683050  1
  Ge  Ge1415  1  0.03125300  0.40567634  0.90683050  1
  Ge  Ge1416  1  0.03125300  0.65567635  0.15683050  1
  Ge  Ge1417  1  0.03125300  0.65567635  0.40683050  1
  Ge  Ge1418  1  0.03125300  0.65567635  0.65683050  1
  Ge  Ge1419  1  0.03125300  0.65567634  0.90683050  1
  Ge  Ge1420  1  0.03125299  0.90567634  0.15683050  1
  Ge  Ge1421  1  0.03125299  0.90567634  0.40683050  1
  Ge  Ge1422  1  0.03125300  0.90567635  0.65683050  1
  Ge  Ge1423  1  0.03125300  0.90567635  0.90683050  1
  Ge  Ge1424  1  0.28125299  0.15567634  0.15683050  1
  Ge  Ge1425  1  0.28125299  0.15567634  0.40683050  1
  Ge  Ge1426  1  0.28125300  0.15567634  0.65683050  1
  Ge  Ge1427  1  0.28125300  0.15567634  0.90683050  1
  Ge  Ge1428  1  0.28125300  0.40567634  0.15683050  1
  Ge  Ge1429  1  0.28125300  0.40567635  0.40683050  1
  Ge  Ge1430  1  0.28125300  0.40567635  0.65683050  1
  Ge  Ge1431  1  0.28125300  0.40567634  0.90683050  1
  Ge  Ge1432  1  0.28125299  0.65567635  0.15683050  1
  Ge  Ge1433  1  0.28125300  0.65567634  0.40683050  1
  Ge  Ge1434  1  0.28125299  0.65567635  0.65683050  1
  Ge  Ge1435  1  0.28125299  0.65567634  0.90683050  1
  Ge  Ge1436  1  0.28125300  0.90567635  0.15683050  1
  Ge  Ge1437  1  0.28125300  0.90567634  0.40683050  1
  Ge  Ge1438  1  0.28125299  0.90567635  0.65683050  1
  Ge  Ge1439  1  0.28125299  0.90567635  0.90683050  1
  Ge  Ge1440  1  0.53125299  0.15567634  0.15683050  1
  Ge  Ge1441  1  0.53125299  0.15567634  0.40683050  1
  Ge  Ge1442  1  0.53125300  0.15567634  0.65683050  1
  Ge  Ge1443  1  0.53125299  0.15567634  0.90683050  1
  Ge  Ge1444  1  0.53125299  0.40567634  0.15683050  1
  Ge  Ge1445  1  0.53125300  0.40567635  0.40683050  1
  Ge  Ge1446  1  0.53125299  0.40567634  0.65683050  1
  Ge  Ge1447  1  0.53125299  0.40567634  0.90683050  1
  Ge  Ge1448  1  0.53125300  0.65567635  0.15683050  1
  Ge  Ge1449  1  0.53125299  0.65567634  0.40683050  1
  Ge  Ge1450  1  0.53125300  0.65567635  0.65683050  1
  Ge  Ge1451  1  0.53125299  0.65567635  0.90683050  1
  Ge  Ge1452  1  0.53125299  0.90567635  0.15683050  1
  Ge  Ge1453  1  0.53125300  0.90567634  0.40683050  1
  Ge  Ge1454  1  0.53125299  0.90567635  0.65683050  1
  Ge  Ge1455  1  0.53125299  0.90567635  0.90683050  1
  Ge  Ge1456  1  0.78125299  0.15567634  0.15683050  1
  Ge  Ge1457  1  0.78125299  0.15567634  0.40683050  1
  Ge  Ge1458  1  0.78125299  0.15567635  0.65683050  1
  Ge  Ge1459  1  0.78125299  0.15567634  0.90683050  1
  Ge  Ge1460  1  0.78125299  0.40567634  0.15683050  1
  Ge  Ge1461  1  0.78125299  0.40567635  0.40683050  1
  Ge  Ge1462  1  0.78125300  0.40567634  0.65683050  1
  Ge  Ge1463  1  0.78125299  0.40567634  0.90683050  1
  Ge  Ge1464  1  0.78125299  0.65567635  0.15683050  1
  Ge  Ge1465  1  0.78125300  0.65567634  0.40683050  1
  Ge  Ge1466  1  0.78125299  0.65567635  0.65683050  1
  Ge  Ge1467  1  0.78125299  0.65567635  0.90683050  1
  Ge  Ge1468  1  0.78125300  0.90567635  0.15683050  1
  Ge  Ge1469  1  0.78125299  0.90567634  0.40683050  1
  Ge  Ge1470  1  0.78125300  0.90567635  0.65683050  1
  Ge  Ge1471  1  0.78125299  0.90567635  0.90683050  1
  Ge  Ge1472  1  0.09432797  0.03182809  0.09375031  1
  Ge  Ge1473  1  0.09432797  0.03182809  0.34375031  1
  Ge  Ge1474  1  0.09432797  0.03182809  0.59375031  1
  Ge  Ge1475  1  0.09432797  0.03182809  0.84375031  1
  Ge  Ge1476  1  0.09432797  0.28182809  0.09375031  1
  Ge  Ge1477  1  0.09432797  0.28182809  0.34375031  1
  Ge  Ge1478  1  0.09432797  0.28182809  0.59375031  1
  Ge  Ge1479  1  0.09432797  0.28182809  0.84375031  1
  Ge  Ge1480  1  0.09432797  0.53182809  0.09375031  1
  Ge  Ge1481  1  0.09432797  0.53182809  0.34375031  1
  Ge  Ge1482  1  0.09432797  0.53182809  0.59375031  1
  Ge  Ge1483  1  0.09432797  0.53182809  0.84375031  1
  Ge  Ge1484  1  0.09432797  0.78182809  0.09375031  1
  Ge  Ge1485  1  0.09432797  0.78182809  0.34375031  1
  Ge  Ge1486  1  0.09432797  0.78182809  0.59375031  1
  Ge  Ge1487  1  0.09432797  0.78182809  0.84375031  1
  Ge  Ge1488  1  0.34432797  0.03182809  0.09375031  1
  Ge  Ge1489  1  0.34432797  0.03182809  0.34375031  1
  Ge  Ge1490  1  0.34432797  0.03182809  0.59375031  1
  Ge  Ge1491  1  0.34432797  0.03182809  0.84375031  1
  Ge  Ge1492  1  0.34432797  0.28182809  0.09375031  1
  Ge  Ge1493  1  0.34432797  0.28182809  0.34375031  1
  Ge  Ge1494  1  0.34432797  0.28182809  0.59375031  1
  Ge  Ge1495  1  0.34432797  0.28182809  0.84375031  1
  Ge  Ge1496  1  0.34432797  0.53182809  0.09375031  1
  Ge  Ge1497  1  0.34432797  0.53182809  0.34375031  1
  Ge  Ge1498  1  0.34432797  0.53182809  0.59375031  1
  Ge  Ge1499  1  0.34432797  0.53182809  0.84375031  1
  Ge  Ge1500  1  0.34432797  0.78182809  0.09375031  1
  Ge  Ge1501  1  0.34432797  0.78182809  0.34375031  1
  Ge  Ge1502  1  0.34432797  0.78182809  0.59375031  1
  Ge  Ge1503  1  0.34432797  0.78182809  0.84375031  1
  Ge  Ge1504  1  0.59432797  0.03182809  0.09375031  1
  Ge  Ge1505  1  0.59432797  0.03182809  0.34375031  1
  Ge  Ge1506  1  0.59432797  0.03182809  0.59375031  1
  Ge  Ge1507  1  0.59432797  0.03182809  0.84375031  1
  Ge  Ge1508  1  0.59432797  0.28182809  0.09375031  1
  Ge  Ge1509  1  0.59432797  0.28182809  0.34375031  1
  Ge  Ge1510  1  0.59432797  0.28182809  0.59375031  1
  Ge  Ge1511  1  0.59432797  0.28182809  0.84375031  1
  Ge  Ge1512  1  0.59432797  0.53182809  0.09375031  1
  Ge  Ge1513  1  0.59432797  0.53182809  0.34375031  1
  Ge  Ge1514  1  0.59432797  0.53182809  0.59375031  1
  Ge  Ge1515  1  0.59432797  0.53182809  0.84375031  1
  Ge  Ge1516  1  0.59432797  0.78182809  0.09375031  1
  Ge  Ge1517  1  0.59432797  0.78182809  0.34375031  1
  Ge  Ge1518  1  0.59432797  0.78182809  0.59375031  1
  Ge  Ge1519  1  0.59432797  0.78182809  0.84375031  1
  Ge  Ge1520  1  0.84432797  0.03182809  0.09375031  1
  Ge  Ge1521  1  0.84432797  0.03182809  0.34375031  1
  Ge  Ge1522  1  0.84432797  0.03182809  0.59375031  1
  Ge  Ge1523  1  0.84432797  0.03182809  0.84375031  1
  Ge  Ge1524  1  0.84432797  0.28182809  0.09375031  1
  Ge  Ge1525  1  0.84432797  0.28182809  0.34375031  1
  Ge  Ge1526  1  0.84432797  0.28182809  0.59375031  1
  Ge  Ge1527  1  0.84432797  0.28182809  0.84375031  1
  Ge  Ge1528  1  0.84432797  0.53182809  0.09375031  1
  Ge  Ge1529  1  0.84432797  0.53182809  0.34375031  1
  Ge  Ge1530  1  0.84432797  0.53182809  0.59375031  1
  Ge  Ge1531  1  0.84432797  0.53182809  0.84375031  1
  Ge  Ge1532  1  0.84432797  0.78182809  0.09375031  1
  Ge  Ge1533  1  0.84432797  0.78182809  0.34375031  1
  Ge  Ge1534  1  0.84432797  0.78182809  0.59375031  1
  Ge  Ge1535  1  0.84432797  0.78182809  0.84375031  1
  O  O1536  1  0.15396164  0.02896013  0.09603842  1
  O  O1537  1  0.15396164  0.02896013  0.34603842  1
  O  O1538  1  0.15396164  0.02896013  0.59603842  1
  O  O1539  1  0.15396164  0.02896013  0.84603842  1
  O  O1540  1  0.15396164  0.27896013  0.09603842  1
  O  O1541  1  0.15396164  0.27896013  0.34603842  1
  O  O1542  1  0.15396164  0.27896013  0.59603842  1
  O  O1543  1  0.15396164  0.27896013  0.84603842  1
  O  O1544  1  0.15396164  0.52896013  0.09603842  1
  O  O1545  1  0.15396164  0.52896013  0.34603842  1
  O  O1546  1  0.15396164  0.52896013  0.59603842  1
  O  O1547  1  0.15396164  0.52896013  0.84603842  1
  O  O1548  1  0.15396164  0.77896013  0.09603842  1
  O  O1549  1  0.15396164  0.77896013  0.34603842  1
  O  O1550  1  0.15396164  0.77896013  0.59603842  1
  O  O1551  1  0.15396164  0.77896013  0.84603842  1
  O  O1552  1  0.40396164  0.02896013  0.09603842  1
  O  O1553  1  0.40396164  0.02896013  0.34603842  1
  O  O1554  1  0.40396164  0.02896013  0.59603842  1
  O  O1555  1  0.40396164  0.02896013  0.84603842  1
  O  O1556  1  0.40396164  0.27896013  0.09603842  1
  O  O1557  1  0.40396164  0.27896013  0.34603842  1
  O  O1558  1  0.40396164  0.27896013  0.59603842  1
  O  O1559  1  0.40396164  0.27896013  0.84603842  1
  O  O1560  1  0.40396164  0.52896013  0.09603842  1
  O  O1561  1  0.40396164  0.52896013  0.34603842  1
  O  O1562  1  0.40396164  0.52896013  0.59603842  1
  O  O1563  1  0.40396164  0.52896013  0.84603842  1
  O  O1564  1  0.40396164  0.77896013  0.09603842  1
  O  O1565  1  0.40396164  0.77896013  0.34603842  1
  O  O1566  1  0.40396164  0.77896013  0.59603842  1
  O  O1567  1  0.40396164  0.77896013  0.84603842  1
  O  O1568  1  0.65396164  0.02896013  0.09603842  1
  O  O1569  1  0.65396164  0.02896013  0.34603842  1
  O  O1570  1  0.65396164  0.02896013  0.59603842  1
  O  O1571  1  0.65396164  0.02896013  0.84603842  1
  O  O1572  1  0.65396164  0.27896013  0.09603842  1
  O  O1573  1  0.65396164  0.27896013  0.34603842  1
  O  O1574  1  0.65396164  0.27896013  0.59603842  1
  O  O1575  1  0.65396164  0.27896013  0.84603842  1
  O  O1576  1  0.65396164  0.52896013  0.09603842  1
  O  O1577  1  0.65396164  0.52896013  0.34603842  1
  O  O1578  1  0.65396164  0.52896013  0.59603842  1
  O  O1579  1  0.65396164  0.52896013  0.84603842  1
  O  O1580  1  0.65396164  0.77896013  0.09603842  1
  O  O1581  1  0.65396164  0.77896013  0.34603842  1
  O  O1582  1  0.65396164  0.77896013  0.59603842  1
  O  O1583  1  0.65396164  0.77896013  0.84603842  1
  O  O1584  1  0.90396164  0.02896013  0.09603842  1
  O  O1585  1  0.90396164  0.02896013  0.34603842  1
  O  O1586  1  0.90396164  0.02896013  0.59603842  1
  O  O1587  1  0.90396164  0.02896013  0.84603842  1
  O  O1588  1  0.90396164  0.27896013  0.09603842  1
  O  O1589  1  0.90396164  0.27896013  0.34603842  1
  O  O1590  1  0.90396164  0.27896013  0.59603842  1
  O  O1591  1  0.90396164  0.27896013  0.84603842  1
  O  O1592  1  0.90396164  0.52896013  0.09603842  1
  O  O1593  1  0.90396164  0.52896013  0.34603842  1
  O  O1594  1  0.90396164  0.52896013  0.59603842  1
  O  O1595  1  0.90396164  0.52896013  0.84603842  1
  O  O1596  1  0.90396164  0.77896013  0.09603842  1
  O  O1597  1  0.90396164  0.77896013  0.34603842  1
  O  O1598  1  0.90396164  0.77896013  0.59603842  1
  O  O1599  1  0.90396164  0.77896013  0.84603842  1
  O  O1600  1  0.16227139  0.08916140  0.15596446  1
  O  O1601  1  0.16227139  0.08916140  0.40596446  1
  O  O1602  1  0.16227139  0.08916140  0.65596447  1
  O  O1603  1  0.16227139  0.08916140  0.90596446  1
  O  O1604  1  0.16227139  0.33916140  0.15596446  1
  O  O1605  1  0.16227139  0.33916140  0.40596446  1
  O  O1606  1  0.16227139  0.33916140  0.65596446  1
  O  O1607  1  0.16227139  0.33916140  0.90596446  1
  O  O1608  1  0.16227139  0.58916140  0.15596446  1
  O  O1609  1  0.16227139  0.58916140  0.40596446  1
  O  O1610  1  0.16227139  0.58916140  0.65596446  1
  O  O1611  1  0.16227139  0.58916140  0.90596447  1
  O  O1612  1  0.16227139  0.83916140  0.15596446  1
  O  O1613  1  0.16227139  0.83916140  0.40596446  1
  O  O1614  1  0.16227139  0.83916140  0.65596447  1
  O  O1615  1  0.16227139  0.83916140  0.90596446  1
  O  O1616  1  0.41227139  0.08916140  0.15596446  1
  O  O1617  1  0.41227139  0.08916140  0.40596446  1
  O  O1618  1  0.41227139  0.08916140  0.65596447  1
  O  O1619  1  0.41227139  0.08916140  0.90596446  1
  O  O1620  1  0.41227139  0.33916140  0.15596446  1
  O  O1621  1  0.41227139  0.33916140  0.40596446  1
  O  O1622  1  0.41227139  0.33916140  0.65596446  1
  O  O1623  1  0.41227139  0.33916140  0.90596446  1
  O  O1624  1  0.41227139  0.58916140  0.15596446  1
  O  O1625  1  0.41227139  0.58916140  0.40596446  1
  O  O1626  1  0.41227139  0.58916140  0.65596446  1
  O  O1627  1  0.41227139  0.58916140  0.90596447  1
  O  O1628  1  0.41227139  0.83916140  0.15596446  1
  O  O1629  1  0.41227139  0.83916140  0.40596446  1
  O  O1630  1  0.41227139  0.83916140  0.65596447  1
  O  O1631  1  0.41227139  0.83916140  0.90596446  1
  O  O1632  1  0.66227139  0.08916140  0.15596446  1
  O  O1633  1  0.66227139  0.08916140  0.40596446  1
  O  O1634  1  0.66227139  0.08916140  0.65596447  1
  O  O1635  1  0.66227139  0.08916140  0.90596446  1
  O  O1636  1  0.66227139  0.33916140  0.15596446  1
  O  O1637  1  0.66227139  0.33916140  0.40596446  1
  O  O1638  1  0.66227139  0.33916140  0.65596446  1
  O  O1639  1  0.66227139  0.33916140  0.90596446  1
  O  O1640  1  0.66227139  0.58916140  0.15596446  1
  O  O1641  1  0.66227139  0.58916140  0.40596446  1
  O  O1642  1  0.66227139  0.58916140  0.65596446  1
  O  O1643  1  0.66227139  0.58916140  0.90596447  1
  O  O1644  1  0.66227139  0.83916140  0.15596446  1
  O  O1645  1  0.66227139  0.83916140  0.40596446  1
  O  O1646  1  0.66227139  0.83916140  0.65596447  1
  O  O1647  1  0.66227139  0.83916140  0.90596446  1
  O  O1648  1  0.91227139  0.08916140  0.15596446  1
  O  O1649  1  0.91227139  0.08916140  0.40596446  1
  O  O1650  1  0.91227139  0.08916140  0.65596447  1
  O  O1651  1  0.91227139  0.08916140  0.90596446  1
  O  O1652  1  0.91227139  0.33916140  0.15596446  1
  O  O1653  1  0.91227139  0.33916140  0.40596446  1
  O  O1654  1  0.91227139  0.33916140  0.65596446  1
  O  O1655  1  0.91227139  0.33916140  0.90596446  1
  O  O1656  1  0.91227139  0.58916140  0.15596446  1
  O  O1657  1  0.91227139  0.58916140  0.40596446  1
  O  O1658  1  0.91227139  0.58916140  0.65596446  1
  O  O1659  1  0.91227139  0.58916140  0.90596446  1
  O  O1660  1  0.91227139  0.83916140  0.15596446  1
  O  O1661  1  0.91227139  0.83916140  0.40596446  1
  O  O1662  1  0.91227139  0.83916140  0.65596447  1
  O  O1663  1  0.91227139  0.83916140  0.90596447  1
  O  O1664  1  0.03727012  0.03583967  0.09403572  1
  O  O1665  1  0.03727012  0.03583967  0.34403572  1
  O  O1666  1  0.03727012  0.03583967  0.59403571  1
  O  O1667  1  0.03727012  0.03583967  0.84403571  1
  O  O1668  1  0.03727012  0.28583967  0.09403572  1
  O  O1669  1  0.03727012  0.28583967  0.34403571  1
  O  O1670  1  0.03727012  0.28583967  0.59403571  1
  O  O1671  1  0.03727012  0.28583967  0.84403571  1
  O  O1672  1  0.03727012  0.53583967  0.09403572  1
  O  O1673  1  0.03727012  0.53583967  0.34403571  1
  O  O1674  1  0.03727012  0.53583967  0.59403571  1
  O  O1675  1  0.03727012  0.53583967  0.84403571  1
  O  O1676  1  0.03727012  0.78583967  0.09403572  1
  O  O1677  1  0.03727012  0.78583967  0.34403572  1
  O  O1678  1  0.03727012  0.78583967  0.59403571  1
  O  O1679  1  0.03727012  0.78583967  0.84403571  1
  O  O1680  1  0.28727012  0.03583967  0.09403571  1
  O  O1681  1  0.28727012  0.03583967  0.34403572  1
  O  O1682  1  0.28727012  0.03583967  0.59403571  1
  O  O1683  1  0.28727012  0.03583967  0.84403571  1
  O  O1684  1  0.28727012  0.28583967  0.09403571  1
  O  O1685  1  0.28727012  0.28583967  0.34403572  1
  O  O1686  1  0.28727012  0.28583967  0.59403571  1
  O  O1687  1  0.28727012  0.28583967  0.84403571  1
  O  O1688  1  0.28727012  0.53583967  0.09403572  1
  O  O1689  1  0.28727012  0.53583967  0.34403571  1
  O  O1690  1  0.28727012  0.53583967  0.59403571  1
  O  O1691  1  0.28727012  0.53583967  0.84403571  1
  O  O1692  1  0.28727012  0.78583967  0.09403572  1
  O  O1693  1  0.28727012  0.78583967  0.34403571  1
  O  O1694  1  0.28727012  0.78583967  0.59403571  1
  O  O1695  1  0.28727012  0.78583967  0.84403571  1
  O  O1696  1  0.53727012  0.03583967  0.09403572  1
  O  O1697  1  0.53727012  0.03583967  0.34403572  1
  O  O1698  1  0.53727012  0.03583967  0.59403571  1
  O  O1699  1  0.53727012  0.03583967  0.84403571  1
  O  O1700  1  0.53727012  0.28583967  0.09403571  1
  O  O1701  1  0.53727012  0.28583967  0.34403572  1
  O  O1702  1  0.53727012  0.28583967  0.59403571  1
  O  O1703  1  0.53727012  0.28583967  0.84403571  1
  O  O1704  1  0.53727012  0.53583967  0.09403571  1
  O  O1705  1  0.53727012  0.53583967  0.34403572  1
  O  O1706  1  0.53727012  0.53583967  0.59403571  1
  O  O1707  1  0.53727012  0.53583967  0.84403571  1
  O  O1708  1  0.53727012  0.78583967  0.09403571  1
  O  O1709  1  0.53727012  0.78583967  0.34403571  1
  O  O1710  1  0.53727012  0.78583967  0.59403571  1
  O  O1711  1  0.53727012  0.78583967  0.84403571  1
  O  O1712  1  0.78727012  0.03583967  0.09403572  1
  O  O1713  1  0.78727012  0.03583967  0.34403571  1
  O  O1714  1  0.78727012  0.03583967  0.59403571  1
  O  O1715  1  0.78727012  0.03583967  0.84403571  1
  O  O1716  1  0.78727012  0.28583967  0.09403572  1
  O  O1717  1  0.78727012  0.28583967  0.34403572  1
  O  O1718  1  0.78727012  0.28583967  0.59403571  1
  O  O1719  1  0.78727012  0.28583967  0.84403571  1
  O  O1720  1  0.78727012  0.53583967  0.09403572  1
  O  O1721  1  0.78727012  0.53583967  0.34403572  1
  O  O1722  1  0.78727012  0.53583967  0.59403571  1
  O  O1723  1  0.78727012  0.53583967  0.84403571  1
  O  O1724  1  0.78727012  0.78583967  0.09403571  1
  O  O1725  1  0.78727012  0.78583967  0.34403572  1
  O  O1726  1  0.78727012  0.78583967  0.59403571  1
  O  O1727  1  0.78727012  0.78583967  0.84403571  1
  O  O1728  1  0.08916086  0.15596584  0.16227067  1
  O  O1729  1  0.08916086  0.15596584  0.41227067  1
  O  O1730  1  0.08916086  0.15596584  0.66227067  1
  O  O1731  1  0.08916086  0.15596584  0.91227067  1
  O  O1732  1  0.08916086  0.40596584  0.16227067  1
  O  O1733  1  0.08916086  0.40596584  0.41227067  1
  O  O1734  1  0.08916086  0.40596584  0.66227067  1
  O  O1735  1  0.08916086  0.40596584  0.91227067  1
  O  O1736  1  0.08916086  0.65596584  0.16227067  1
  O  O1737  1  0.08916086  0.65596584  0.41227067  1
  O  O1738  1  0.08916086  0.65596584  0.66227067  1
  O  O1739  1  0.08916086  0.65596584  0.91227067  1
  O  O1740  1  0.08916086  0.90596584  0.16227067  1
  O  O1741  1  0.08916086  0.90596584  0.41227067  1
  O  O1742  1  0.08916086  0.90596584  0.66227067  1
  O  O1743  1  0.08916086  0.90596584  0.91227067  1
  O  O1744  1  0.33916086  0.15596584  0.16227067  1
  O  O1745  1  0.33916086  0.15596584  0.41227067  1
  O  O1746  1  0.33916086  0.15596584  0.66227067  1
  O  O1747  1  0.33916086  0.15596584  0.91227067  1
  O  O1748  1  0.33916086  0.40596584  0.16227067  1
  O  O1749  1  0.33916086  0.40596584  0.41227067  1
  O  O1750  1  0.33916086  0.40596584  0.66227067  1
  O  O1751  1  0.33916086  0.40596584  0.91227067  1
  O  O1752  1  0.33916086  0.65596584  0.16227067  1
  O  O1753  1  0.33916086  0.65596584  0.41227067  1
  O  O1754  1  0.33916086  0.65596584  0.66227067  1
  O  O1755  1  0.33916086  0.65596584  0.91227067  1
  O  O1756  1  0.33916086  0.90596584  0.16227067  1
  O  O1757  1  0.33916086  0.90596584  0.41227067  1
  O  O1758  1  0.33916086  0.90596584  0.66227067  1
  O  O1759  1  0.33916086  0.90596584  0.91227067  1
  O  O1760  1  0.58916086  0.15596584  0.16227067  1
  O  O1761  1  0.58916086  0.15596584  0.41227067  1
  O  O1762  1  0.58916086  0.15596584  0.66227067  1
  O  O1763  1  0.58916086  0.15596584  0.91227067  1
  O  O1764  1  0.58916086  0.40596584  0.16227067  1
  O  O1765  1  0.58916086  0.40596584  0.41227067  1
  O  O1766  1  0.58916086  0.40596584  0.66227067  1
  O  O1767  1  0.58916086  0.40596584  0.91227067  1
  O  O1768  1  0.58916086  0.65596584  0.16227067  1
  O  O1769  1  0.58916086  0.65596584  0.41227067  1
  O  O1770  1  0.58916086  0.65596584  0.66227067  1
  O  O1771  1  0.58916086  0.65596584  0.91227067  1
  O  O1772  1  0.58916086  0.90596584  0.16227067  1
  O  O1773  1  0.58916086  0.90596584  0.41227067  1
  O  O1774  1  0.58916086  0.90596584  0.66227067  1
  O  O1775  1  0.58916086  0.90596584  0.91227067  1
  O  O1776  1  0.83916086  0.15596584  0.16227067  1
  O  O1777  1  0.83916086  0.15596584  0.41227067  1
  O  O1778  1  0.83916086  0.15596584  0.66227067  1
  O  O1779  1  0.83916086  0.15596584  0.91227067  1
  O  O1780  1  0.83916086  0.40596584  0.16227067  1
  O  O1781  1  0.83916086  0.40596584  0.41227067  1
  O  O1782  1  0.83916086  0.40596584  0.66227067  1
  O  O1783  1  0.83916086  0.40596584  0.91227067  1
  O  O1784  1  0.83916086  0.65596584  0.16227067  1
  O  O1785  1  0.83916086  0.65596584  0.41227067  1
  O  O1786  1  0.83916086  0.65596584  0.66227067  1
  O  O1787  1  0.83916086  0.65596584  0.91227067  1
  O  O1788  1  0.83916086  0.90596584  0.16227067  1
  O  O1789  1  0.83916086  0.90596584  0.41227067  1
  O  O1790  1  0.83916086  0.90596584  0.66227067  1
  O  O1791  1  0.83916086  0.90596584  0.91227067  1
  O  O1792  1  0.16083823  0.03096565  0.21272961  1
  O  O1793  1  0.16083823  0.03096565  0.46272961  1
  O  O1794  1  0.16083823  0.03096565  0.71272961  1
  O  O1795  1  0.16083823  0.03096565  0.96272961  1
  O  O1796  1  0.16083823  0.28096565  0.21272961  1
  O  O1797  1  0.16083823  0.28096565  0.46272961  1
  O  O1798  1  0.16083823  0.28096565  0.71272961  1
  O  O1799  1  0.16083823  0.28096565  0.96272961  1
  O  O1800  1  0.16083823  0.53096565  0.21272961  1
  O  O1801  1  0.16083823  0.53096564  0.46272961  1
  O  O1802  1  0.16083823  0.53096565  0.71272961  1
  O  O1803  1  0.16083823  0.53096564  0.96272961  1
  O  O1804  1  0.16083823  0.78096565  0.21272961  1
  O  O1805  1  0.16083823  0.78096564  0.46272961  1
  O  O1806  1  0.16083823  0.78096565  0.71272961  1
  O  O1807  1  0.16083823  0.78096565  0.96272961  1
  O  O1808  1  0.41083823  0.03096565  0.21272961  1
  O  O1809  1  0.41083823  0.03096565  0.46272961  1
  O  O1810  1  0.41083823  0.03096565  0.71272961  1
  O  O1811  1  0.41083823  0.03096565  0.96272961  1
  O  O1812  1  0.41083823  0.28096565  0.21272961  1
  O  O1813  1  0.41083823  0.28096565  0.46272961  1
  O  O1814  1  0.41083823  0.28096564  0.71272961  1
  O  O1815  1  0.41083823  0.28096565  0.96272961  1
  O  O1816  1  0.41083823  0.53096565  0.21272961  1
  O  O1817  1  0.41083823  0.53096564  0.46272961  1
  O  O1818  1  0.41083823  0.53096565  0.71272961  1
  O  O1819  1  0.41083823  0.53096565  0.96272961  1
  O  O1820  1  0.41083823  0.78096565  0.21272961  1
  O  O1821  1  0.41083823  0.78096564  0.46272961  1
  O  O1822  1  0.41083823  0.78096565  0.71272961  1
  O  O1823  1  0.41083823  0.78096565  0.96272961  1
  O  O1824  1  0.66083823  0.03096565  0.21272961  1
  O  O1825  1  0.66083823  0.03096565  0.46272961  1
  O  O1826  1  0.66083823  0.03096565  0.71272961  1
  O  O1827  1  0.66083823  0.03096565  0.96272961  1
  O  O1828  1  0.66083823  0.28096565  0.21272961  1
  O  O1829  1  0.66083823  0.28096565  0.46272961  1
  O  O1830  1  0.66083823  0.28096564  0.71272961  1
  O  O1831  1  0.66083823  0.28096565  0.96272961  1
  O  O1832  1  0.66083823  0.53096564  0.21272961  1
  O  O1833  1  0.66083823  0.53096564  0.46272961  1
  O  O1834  1  0.66083823  0.53096565  0.71272961  1
  O  O1835  1  0.66083823  0.53096565  0.96272961  1
  O  O1836  1  0.66083823  0.78096565  0.21272961  1
  O  O1837  1  0.66083823  0.78096564  0.46272961  1
  O  O1838  1  0.66083823  0.78096565  0.71272961  1
  O  O1839  1  0.66083823  0.78096565  0.96272961  1
  O  O1840  1  0.91083823  0.03096565  0.21272961  1
  O  O1841  1  0.91083823  0.03096565  0.46272961  1
  O  O1842  1  0.91083823  0.03096565  0.71272961  1
  O  O1843  1  0.91083823  0.03096565  0.96272961  1
  O  O1844  1  0.91083823  0.28096565  0.21272961  1
  O  O1845  1  0.91083823  0.28096564  0.46272961  1
  O  O1846  1  0.91083823  0.28096564  0.71272961  1
  O  O1847  1  0.91083823  0.28096565  0.96272961  1
  O  O1848  1  0.91083823  0.53096564  0.21272961  1
  O  O1849  1  0.91083823  0.53096564  0.46272961  1
  O  O1850  1  0.91083823  0.53096565  0.71272961  1
  O  O1851  1  0.91083823  0.53096565  0.96272961  1
  O  O1852  1  0.91083823  0.78096565  0.21272961  1
  O  O1853  1  0.91083823  0.78096564  0.46272961  1
  O  O1854  1  0.91083823  0.78096565  0.71272961  1
  O  O1855  1  0.91083823  0.78096565  0.96272961  1
  O  O1856  1  0.15596421  0.16226967  0.08916206  1
  O  O1857  1  0.15596421  0.16226967  0.33916206  1
  O  O1858  1  0.15596421  0.16226967  0.58916206  1
  O  O1859  1  0.15596421  0.16226967  0.83916206  1
  O  O1860  1  0.15596421  0.41226967  0.08916206  1
  O  O1861  1  0.15596421  0.41226967  0.33916206  1
  O  O1862  1  0.15596421  0.41226967  0.58916206  1
  O  O1863  1  0.15596421  0.41226967  0.83916206  1
  O  O1864  1  0.15596421  0.66226967  0.08916206  1
  O  O1865  1  0.15596421  0.66226967  0.33916206  1
  O  O1866  1  0.15596421  0.66226967  0.58916206  1
  O  O1867  1  0.15596421  0.66226967  0.83916206  1
  O  O1868  1  0.15596421  0.91226967  0.08916206  1
  O  O1869  1  0.15596421  0.91226967  0.33916206  1
  O  O1870  1  0.15596421  0.91226967  0.58916206  1
  O  O1871  1  0.15596421  0.91226967  0.83916206  1
  O  O1872  1  0.40596421  0.16226967  0.08916206  1
  O  O1873  1  0.40596421  0.16226967  0.33916206  1
  O  O1874  1  0.40596421  0.16226967  0.58916206  1
  O  O1875  1  0.40596422  0.16226967  0.83916206  1
  O  O1876  1  0.40596421  0.41226967  0.08916206  1
  O  O1877  1  0.40596421  0.41226967  0.33916206  1
  O  O1878  1  0.40596421  0.41226967  0.58916206  1
  O  O1879  1  0.40596422  0.41226967  0.83916206  1
  O  O1880  1  0.40596421  0.66226967  0.08916206  1
  O  O1881  1  0.40596421  0.66226967  0.33916206  1
  O  O1882  1  0.40596421  0.66226967  0.58916206  1
  O  O1883  1  0.40596421  0.66226967  0.83916206  1
  O  O1884  1  0.40596422  0.91226967  0.08916206  1
  O  O1885  1  0.40596421  0.91226967  0.33916206  1
  O  O1886  1  0.40596421  0.91226967  0.58916206  1
  O  O1887  1  0.40596421  0.91226967  0.83916206  1
  O  O1888  1  0.65596421  0.16226967  0.08916206  1
  O  O1889  1  0.65596421  0.16226967  0.33916206  1
  O  O1890  1  0.65596421  0.16226967  0.58916206  1
  O  O1891  1  0.65596421  0.16226967  0.83916206  1
  O  O1892  1  0.65596421  0.41226967  0.08916206  1
  O  O1893  1  0.65596421  0.41226967  0.33916206  1
  O  O1894  1  0.65596421  0.41226967  0.58916206  1
  O  O1895  1  0.65596421  0.41226967  0.83916206  1
  O  O1896  1  0.65596422  0.66226967  0.08916206  1
  O  O1897  1  0.65596421  0.66226967  0.33916206  1
  O  O1898  1  0.65596421  0.66226967  0.58916206  1
  O  O1899  1  0.65596421  0.66226967  0.83916206  1
  O  O1900  1  0.65596422  0.91226967  0.08916206  1
  O  O1901  1  0.65596421  0.91226967  0.33916206  1
  O  O1902  1  0.65596421  0.91226967  0.58916206  1
  O  O1903  1  0.65596421  0.91226967  0.83916206  1
  O  O1904  1  0.90596421  0.16226967  0.08916206  1
  O  O1905  1  0.90596421  0.16226967  0.33916206  1
  O  O1906  1  0.90596421  0.16226967  0.58916206  1
  O  O1907  1  0.90596421  0.16226967  0.83916206  1
  O  O1908  1  0.90596421  0.41226967  0.08916206  1
  O  O1909  1  0.90596421  0.41226967  0.33916206  1
  O  O1910  1  0.90596421  0.41226967  0.58916206  1
  O  O1911  1  0.90596421  0.41226967  0.83916206  1
  O  O1912  1  0.90596421  0.66226967  0.08916206  1
  O  O1913  1  0.90596421  0.66226967  0.33916206  1
  O  O1914  1  0.90596421  0.66226967  0.58916206  1
  O  O1915  1  0.90596421  0.66226967  0.83916206  1
  O  O1916  1  0.90596422  0.91226967  0.08916206  1
  O  O1917  1  0.90596421  0.91226967  0.33916206  1
  O  O1918  1  0.90596421  0.91226967  0.58916206  1
  O  O1919  1  0.90596421  0.91226967  0.83916206  1
  O  O1920  1  0.21903450  0.08772998  0.21416077  1
  O  O1921  1  0.21903450  0.08772998  0.46416077  1
  O  O1922  1  0.21903450  0.08772998  0.71416077  1
  O  O1923  1  0.21903450  0.08772998  0.96416077  1
  O  O1924  1  0.21903450  0.33772998  0.21416077  1
  O  O1925  1  0.21903450  0.33772998  0.46416077  1
  O  O1926  1  0.21903450  0.33772998  0.71416077  1
  O  O1927  1  0.21903450  0.33772998  0.96416077  1
  O  O1928  1  0.21903450  0.58772998  0.21416077  1
  O  O1929  1  0.21903450  0.58772998  0.46416077  1
  O  O1930  1  0.21903450  0.58772998  0.71416077  1
  O  O1931  1  0.21903450  0.58772998  0.96416077  1
  O  O1932  1  0.21903450  0.83772998  0.21416077  1
  O  O1933  1  0.21903450  0.83772998  0.46416077  1
  O  O1934  1  0.21903450  0.83772998  0.71416077  1
  O  O1935  1  0.21903450  0.83772998  0.96416077  1
  O  O1936  1  0.46903450  0.08772998  0.21416077  1
  O  O1937  1  0.46903450  0.08772998  0.46416077  1
  O  O1938  1  0.46903450  0.08772998  0.71416077  1
  O  O1939  1  0.46903450  0.08772998  0.96416077  1
  O  O1940  1  0.46903450  0.33772998  0.21416077  1
  O  O1941  1  0.46903450  0.33772998  0.46416077  1
  O  O1942  1  0.46903450  0.33772998  0.71416077  1
  O  O1943  1  0.46903450  0.33772998  0.96416077  1
  O  O1944  1  0.46903450  0.58772998  0.21416077  1
  O  O1945  1  0.46903450  0.58772998  0.46416077  1
  O  O1946  1  0.46903450  0.58772998  0.71416077  1
  O  O1947  1  0.46903450  0.58772998  0.96416077  1
  O  O1948  1  0.46903450  0.83772998  0.21416077  1
  O  O1949  1  0.46903450  0.83772998  0.46416077  1
  O  O1950  1  0.46903450  0.83772998  0.71416077  1
  O  O1951  1  0.46903450  0.83772998  0.96416077  1
  O  O1952  1  0.71903450  0.08772998  0.21416077  1
  O  O1953  1  0.71903450  0.08772998  0.46416077  1
  O  O1954  1  0.71903450  0.08772998  0.71416077  1
  O  O1955  1  0.71903450  0.08772998  0.96416077  1
  O  O1956  1  0.71903450  0.33772998  0.21416077  1
  O  O1957  1  0.71903450  0.33772998  0.46416077  1
  O  O1958  1  0.71903450  0.33772998  0.71416077  1
  O  O1959  1  0.71903450  0.33772998  0.96416077  1
  O  O1960  1  0.71903450  0.58772998  0.21416077  1
  O  O1961  1  0.71903450  0.58772998  0.46416077  1
  O  O1962  1  0.71903450  0.58772998  0.71416077  1
  O  O1963  1  0.71903450  0.58772998  0.96416077  1
  O  O1964  1  0.71903450  0.83772998  0.21416077  1
  O  O1965  1  0.71903450  0.83772998  0.46416077  1
  O  O1966  1  0.71903450  0.83772998  0.71416077  1
  O  O1967  1  0.71903450  0.83772998  0.96416077  1
  O  O1968  1  0.96903450  0.08772998  0.21416077  1
  O  O1969  1  0.96903450  0.08772998  0.46416077  1
  O  O1970  1  0.96903450  0.08772998  0.71416077  1
  O  O1971  1  0.96903450  0.08772998  0.96416077  1
  O  O1972  1  0.96903450  0.33772998  0.21416077  1
  O  O1973  1  0.96903450  0.33772998  0.46416077  1
  O  O1974  1  0.96903450  0.33772998  0.71416077  1
  O  O1975  1  0.96903450  0.33772998  0.96416077  1
  O  O1976  1  0.96903450  0.58772998  0.21416077  1
  O  O1977  1  0.96903450  0.58772998  0.46416077  1
  O  O1978  1  0.96903450  0.58772998  0.71416077  1
  O  O1979  1  0.96903450  0.58772998  0.96416077  1
  O  O1980  1  0.96903450  0.83772998  0.21416077  1
  O  O1981  1  0.96903450  0.83772998  0.46416077  1
  O  O1982  1  0.96903450  0.83772998  0.71416077  1
  O  O1983  1  0.96903450  0.83772998  0.96416077  1
  O  O1984  1  0.22476915  0.09346501  0.09833751  1
  O  O1985  1  0.22476915  0.09346501  0.34833751  1
  O  O1986  1  0.22476915  0.09346501  0.59833751  1
  O  O1987  1  0.22476915  0.09346501  0.84833751  1
  O  O1988  1  0.22476915  0.34346501  0.09833751  1
  O  O1989  1  0.22476915  0.34346501  0.34833751  1
  O  O1990  1  0.22476915  0.34346501  0.59833751  1
  O  O1991  1  0.22476915  0.34346501  0.84833751  1
  O  O1992  1  0.22476915  0.59346501  0.09833751  1
  O  O1993  1  0.22476915  0.59346501  0.34833751  1
  O  O1994  1  0.22476915  0.59346501  0.59833751  1
  O  O1995  1  0.22476915  0.59346501  0.84833751  1
  O  O1996  1  0.22476915  0.84346501  0.09833751  1
  O  O1997  1  0.22476915  0.84346501  0.34833751  1
  O  O1998  1  0.22476915  0.84346501  0.59833751  1
  O  O1999  1  0.22476915  0.84346501  0.84833751  1
  O  O2000  1  0.47476915  0.09346501  0.09833751  1
  O  O2001  1  0.47476915  0.09346501  0.34833751  1
  O  O2002  1  0.47476915  0.09346501  0.59833751  1
  O  O2003  1  0.47476915  0.09346501  0.84833751  1
  O  O2004  1  0.47476915  0.34346501  0.09833751  1
  O  O2005  1  0.47476915  0.34346501  0.34833751  1
  O  O2006  1  0.47476915  0.34346501  0.59833751  1
  O  O2007  1  0.47476915  0.34346501  0.84833751  1
  O  O2008  1  0.47476915  0.59346501  0.09833751  1
  O  O2009  1  0.47476915  0.59346501  0.34833751  1
  O  O2010  1  0.47476915  0.59346501  0.59833751  1
  O  O2011  1  0.47476915  0.59346501  0.84833751  1
  O  O2012  1  0.47476915  0.84346501  0.09833751  1
  O  O2013  1  0.47476915  0.84346501  0.34833751  1
  O  O2014  1  0.47476915  0.84346501  0.59833751  1
  O  O2015  1  0.47476915  0.84346501  0.84833751  1
  O  O2016  1  0.72476915  0.09346501  0.09833751  1
  O  O2017  1  0.72476915  0.09346501  0.34833751  1
  O  O2018  1  0.72476915  0.09346501  0.59833751  1
  O  O2019  1  0.72476915  0.09346501  0.84833751  1
  O  O2020  1  0.72476915  0.34346501  0.09833751  1
  O  O2021  1  0.72476915  0.34346501  0.34833751  1
  O  O2022  1  0.72476915  0.34346501  0.59833751  1
  O  O2023  1  0.72476915  0.34346501  0.84833751  1
  O  O2024  1  0.72476915  0.59346501  0.09833751  1
  O  O2025  1  0.72476915  0.59346501  0.34833751  1
  O  O2026  1  0.72476915  0.59346501  0.59833751  1
  O  O2027  1  0.72476915  0.59346501  0.84833751  1
  O  O2028  1  0.72476915  0.84346501  0.09833751  1
  O  O2029  1  0.72476915  0.84346501  0.34833751  1
  O  O2030  1  0.72476915  0.84346501  0.59833751  1
  O  O2031  1  0.72476915  0.84346501  0.84833751  1
  O  O2032  1  0.97476915  0.09346501  0.09833751  1
  O  O2033  1  0.97476915  0.09346501  0.34833751  1
  O  O2034  1  0.97476915  0.09346501  0.59833751  1
  O  O2035  1  0.97476915  0.09346501  0.84833751  1
  O  O2036  1  0.97476915  0.34346501  0.09833751  1
  O  O2037  1  0.97476915  0.34346501  0.34833751  1
  O  O2038  1  0.97476915  0.34346501  0.59833751  1
  O  O2039  1  0.97476915  0.34346501  0.84833751  1
  O  O2040  1  0.97476915  0.59346501  0.09833751  1
  O  O2041  1  0.97476915  0.59346501  0.34833751  1
  O  O2042  1  0.97476915  0.59346501  0.59833751  1
  O  O2043  1  0.97476915  0.59346501  0.84833751  1
  O  O2044  1  0.97476915  0.84346501  0.09833751  1
  O  O2045  1  0.97476915  0.84346501  0.34833751  1
  O  O2046  1  0.97476915  0.84346501  0.59833751  1
  O  O2047  1  0.97476915  0.84346501  0.84833751  1
  O  O2048  1  0.09977111  0.03153413  0.15166165  1
  O  O2049  1  0.09977111  0.03153413  0.40166165  1
  O  O2050  1  0.09977111  0.03153413  0.65166165  1
  O  O2051  1  0.09977111  0.03153413  0.90166165  1
  O  O2052  1  0.09977111  0.28153413  0.15166165  1
  O  O2053  1  0.09977111  0.28153413  0.40166164  1
  O  O2054  1  0.09977111  0.28153413  0.65166165  1
  O  O2055  1  0.09977111  0.28153413  0.90166164  1
  O  O2056  1  0.09977111  0.53153413  0.15166165  1
  O  O2057  1  0.09977111  0.53153413  0.40166165  1
  O  O2058  1  0.09977111  0.53153413  0.65166164  1
  O  O2059  1  0.09977111  0.53153413  0.90166165  1
  O  O2060  1  0.09977111  0.78153413  0.15166165  1
  O  O2061  1  0.09977111  0.78153413  0.40166165  1
  O  O2062  1  0.09977111  0.78153413  0.65166165  1
  O  O2063  1  0.09977111  0.78153413  0.90166164  1
  O  O2064  1  0.34977111  0.03153413  0.15166165  1
  O  O2065  1  0.34977111  0.03153413  0.40166165  1
  O  O2066  1  0.34977111  0.03153413  0.65166165  1
  O  O2067  1  0.34977111  0.03153413  0.90166164  1
  O  O2068  1  0.34977111  0.28153413  0.15166165  1
  O  O2069  1  0.34977111  0.28153413  0.40166164  1
  O  O2070  1  0.34977111  0.28153413  0.65166165  1
  O  O2071  1  0.34977111  0.28153413  0.90166164  1
  O  O2072  1  0.34977111  0.53153413  0.15166165  1
  O  O2073  1  0.34977111  0.53153413  0.40166165  1
  O  O2074  1  0.34977111  0.53153413  0.65166164  1
  O  O2075  1  0.34977111  0.53153413  0.90166165  1
  O  O2076  1  0.34977111  0.78153413  0.15166165  1
  O  O2077  1  0.34977111  0.78153413  0.40166164  1
  O  O2078  1  0.34977111  0.78153413  0.65166165  1
  O  O2079  1  0.34977111  0.78153413  0.90166164  1
  O  O2080  1  0.59977111  0.03153413  0.15166165  1
  O  O2081  1  0.59977111  0.03153413  0.40166165  1
  O  O2082  1  0.59977111  0.03153413  0.65166165  1
  O  O2083  1  0.59977111  0.03153413  0.90166164  1
  O  O2084  1  0.59977111  0.28153413  0.15166165  1
  O  O2085  1  0.59977111  0.28153413  0.40166165  1
  O  O2086  1  0.59977111  0.28153413  0.65166164  1
  O  O2087  1  0.59977111  0.28153413  0.90166165  1
  O  O2088  1  0.59977111  0.53153413  0.15166165  1
  O  O2089  1  0.59977111  0.53153413  0.40166165  1
  O  O2090  1  0.59977111  0.53153413  0.65166165  1
  O  O2091  1  0.59977111  0.53153413  0.90166165  1
  O  O2092  1  0.59977111  0.78153413  0.15166165  1
  O  O2093  1  0.59977111  0.78153413  0.40166164  1
  O  O2094  1  0.59977111  0.78153413  0.65166165  1
  O  O2095  1  0.59977111  0.78153413  0.90166164  1
  O  O2096  1  0.84977111  0.03153413  0.15166165  1
  O  O2097  1  0.84977111  0.03153413  0.40166164  1
  O  O2098  1  0.84977111  0.03153413  0.65166165  1
  O  O2099  1  0.84977111  0.03153413  0.90166164  1
  O  O2100  1  0.84977111  0.28153413  0.15166165  1
  O  O2101  1  0.84977111  0.28153413  0.40166165  1
  O  O2102  1  0.84977111  0.28153413  0.65166164  1
  O  O2103  1  0.84977111  0.28153413  0.90166165  1
  O  O2104  1  0.84977111  0.53153413  0.15166165  1
  O  O2105  1  0.84977111  0.53153413  0.40166165  1
  O  O2106  1  0.84977111  0.53153413  0.65166165  1
  O  O2107  1  0.84977111  0.53153413  0.90166164  1
  O  O2108  1  0.84977111  0.78153413  0.15166165  1
  O  O2109  1  0.84977111  0.78153413  0.40166164  1
  O  O2110  1  0.84977111  0.78153413  0.65166165  1
  O  O2111  1  0.84977111  0.78153413  0.90166164  1
  O  O2112  1  0.02522805  0.21846527  0.02666082  1
  O  O2113  1  0.02522805  0.21846527  0.27666082  1
  O  O2114  1  0.02522805  0.21846527  0.52666082  1
  O  O2115  1  0.02522805  0.21846527  0.77666082  1
  O  O2116  1  0.02522805  0.46846527  0.02666082  1
  O  O2117  1  0.02522805  0.46846527  0.27666082  1
  O  O2118  1  0.02522805  0.46846527  0.52666082  1
  O  O2119  1  0.02522805  0.46846527  0.77666082  1
  O  O2120  1  0.02522805  0.71846527  0.02666082  1
  O  O2121  1  0.02522805  0.71846526  0.27666082  1
  O  O2122  1  0.02522805  0.71846527  0.52666082  1
  O  O2123  1  0.02522805  0.71846527  0.77666082  1
  O  O2124  1  0.02522805  0.96846527  0.02666082  1
  O  O2125  1  0.02522805  0.96846527  0.27666082  1
  O  O2126  1  0.02522805  0.96846527  0.52666082  1
  O  O2127  1  0.02522805  0.96846527  0.77666082  1
  O  O2128  1  0.27522805  0.21846527  0.02666082  1
  O  O2129  1  0.27522805  0.21846527  0.27666082  1
  O  O2130  1  0.27522805  0.21846526  0.52666082  1
  O  O2131  1  0.27522805  0.21846527  0.77666082  1
  O  O2132  1  0.27522805  0.46846527  0.02666082  1
  O  O2133  1  0.27522805  0.46846527  0.27666082  1
  O  O2134  1  0.27522805  0.46846527  0.52666082  1
  O  O2135  1  0.27522805  0.46846527  0.77666082  1
  O  O2136  1  0.27522805  0.71846527  0.02666082  1
  O  O2137  1  0.27522805  0.71846526  0.27666082  1
  O  O2138  1  0.27522805  0.71846527  0.52666082  1
  O  O2139  1  0.27522805  0.71846527  0.77666082  1
  O  O2140  1  0.27522805  0.96846527  0.02666082  1
  O  O2141  1  0.27522805  0.96846527  0.27666082  1
  O  O2142  1  0.27522805  0.96846527  0.52666082  1
  O  O2143  1  0.27522805  0.96846527  0.77666082  1
  O  O2144  1  0.52522805  0.21846526  0.02666082  1
  O  O2145  1  0.52522805  0.21846527  0.27666082  1
  O  O2146  1  0.52522805  0.21846526  0.52666082  1
  O  O2147  1  0.52522805  0.21846527  0.77666082  1
  O  O2148  1  0.52522805  0.46846527  0.02666082  1
  O  O2149  1  0.52522805  0.46846527  0.27666082  1
  O  O2150  1  0.52522805  0.46846527  0.52666082  1
  O  O2151  1  0.52522805  0.46846527  0.77666082  1
  O  O2152  1  0.52522805  0.71846527  0.02666082  1
  O  O2153  1  0.52522805  0.71846526  0.27666082  1
  O  O2154  1  0.52522805  0.71846527  0.52666082  1
  O  O2155  1  0.52522805  0.71846527  0.77666082  1
  O  O2156  1  0.52522805  0.96846527  0.02666082  1
  O  O2157  1  0.52522805  0.96846527  0.27666082  1
  O  O2158  1  0.52522805  0.96846527  0.52666082  1
  O  O2159  1  0.52522805  0.96846527  0.77666082  1
  O  O2160  1  0.77522805  0.21846527  0.02666082  1
  O  O2161  1  0.77522805  0.21846527  0.27666082  1
  O  O2162  1  0.77522805  0.21846527  0.52666082  1
  O  O2163  1  0.77522805  0.21846527  0.77666082  1
  O  O2164  1  0.77522805  0.46846527  0.02666082  1
  O  O2165  1  0.77522805  0.46846527  0.27666082  1
  O  O2166  1  0.77522805  0.46846527  0.52666082  1
  O  O2167  1  0.77522805  0.46846527  0.77666082  1
  O  O2168  1  0.77522805  0.71846527  0.02666082  1
  O  O2169  1  0.77522805  0.71846527  0.27666082  1
  O  O2170  1  0.77522805  0.71846527  0.52666082  1
  O  O2171  1  0.77522805  0.71846527  0.77666082  1
  O  O2172  1  0.77522805  0.96846527  0.02666082  1
  O  O2173  1  0.77522805  0.96846527  0.27666082  1
  O  O2174  1  0.77522805  0.96846527  0.52666082  1
  O  O2175  1  0.77522805  0.96846527  0.77666082  1
  O  O2176  1  0.03153530  0.15166210  0.09976964  1
  O  O2177  1  0.03153530  0.15166210  0.34976964  1
  O  O2178  1  0.03153530  0.15166210  0.59976964  1
  O  O2179  1  0.03153530  0.15166210  0.84976964  1
  O  O2180  1  0.03153530  0.40166210  0.09976964  1
  O  O2181  1  0.03153530  0.40166210  0.34976964  1
  O  O2182  1  0.03153530  0.40166210  0.59976964  1
  O  O2183  1  0.03153530  0.40166210  0.84976964  1
  O  O2184  1  0.03153530  0.65166210  0.09976964  1
  O  O2185  1  0.03153530  0.65166210  0.34976964  1
  O  O2186  1  0.03153530  0.65166210  0.59976964  1
  O  O2187  1  0.03153530  0.65166210  0.84976964  1
  O  O2188  1  0.03153530  0.90166210  0.09976964  1
  O  O2189  1  0.03153530  0.90166210  0.34976964  1
  O  O2190  1  0.03153530  0.90166210  0.59976964  1
  O  O2191  1  0.03153530  0.90166210  0.84976964  1
  O  O2192  1  0.28153530  0.15166210  0.09976964  1
  O  O2193  1  0.28153530  0.15166210  0.34976964  1
  O  O2194  1  0.28153530  0.15166210  0.59976964  1
  O  O2195  1  0.28153530  0.15166210  0.84976964  1
  O  O2196  1  0.28153530  0.40166210  0.09976964  1
  O  O2197  1  0.28153530  0.40166210  0.34976964  1
  O  O2198  1  0.28153530  0.40166210  0.59976964  1
  O  O2199  1  0.28153530  0.40166210  0.84976964  1
  O  O2200  1  0.28153530  0.65166210  0.09976964  1
  O  O2201  1  0.28153530  0.65166210  0.34976964  1
  O  O2202  1  0.28153530  0.65166210  0.59976964  1
  O  O2203  1  0.28153530  0.65166210  0.84976964  1
  O  O2204  1  0.28153530  0.90166210  0.09976964  1
  O  O2205  1  0.28153530  0.90166210  0.34976964  1
  O  O2206  1  0.28153530  0.90166210  0.59976964  1
  O  O2207  1  0.28153530  0.90166210  0.84976964  1
  O  O2208  1  0.53153530  0.15166210  0.09976964  1
  O  O2209  1  0.53153530  0.15166210  0.34976964  1
  O  O2210  1  0.53153530  0.15166210  0.59976964  1
  O  O2211  1  0.53153530  0.15166210  0.84976964  1
  O  O2212  1  0.53153530  0.40166210  0.09976964  1
  O  O2213  1  0.53153530  0.40166210  0.34976964  1
  O  O2214  1  0.53153530  0.40166210  0.59976964  1
  O  O2215  1  0.53153530  0.40166210  0.84976964  1
  O  O2216  1  0.53153530  0.65166210  0.09976964  1
  O  O2217  1  0.53153530  0.65166210  0.34976964  1
  O  O2218  1  0.53153530  0.65166210  0.59976964  1
  O  O2219  1  0.53153530  0.65166210  0.84976964  1
  O  O2220  1  0.53153530  0.90166210  0.09976964  1
  O  O2221  1  0.53153530  0.90166210  0.34976964  1
  O  O2222  1  0.53153530  0.90166210  0.59976964  1
  O  O2223  1  0.53153530  0.90166210  0.84976964  1
  O  O2224  1  0.78153530  0.15166210  0.09976964  1
  O  O2225  1  0.78153530  0.15166210  0.34976964  1
  O  O2226  1  0.78153530  0.15166210  0.59976964  1
  O  O2227  1  0.78153530  0.15166210  0.84976964  1
  O  O2228  1  0.78153530  0.40166210  0.09976964  1
  O  O2229  1  0.78153530  0.40166210  0.34976964  1
  O  O2230  1  0.78153530  0.40166210  0.59976964  1
  O  O2231  1  0.78153530  0.40166210  0.84976964  1
  O  O2232  1  0.78153530  0.65166210  0.09976964  1
  O  O2233  1  0.78153530  0.65166210  0.34976964  1
  O  O2234  1  0.78153530  0.65166210  0.59976964  1
  O  O2235  1  0.78153530  0.65166210  0.84976964  1
  O  O2236  1  0.78153530  0.90166210  0.09976964  1
  O  O2237  1  0.78153530  0.90166210  0.34976964  1
  O  O2238  1  0.78153530  0.90166210  0.59976964  1
  O  O2239  1  0.78153530  0.90166210  0.84976964  1
  O  O2240  1  0.02666055  0.02522909  0.21846467  1
  O  O2241  1  0.02666055  0.02522909  0.46846467  1
  O  O2242  1  0.02666055  0.02522909  0.71846467  1
  O  O2243  1  0.02666055  0.02522909  0.96846467  1
  O  O2244  1  0.02666055  0.27522909  0.21846467  1
  O  O2245  1  0.02666055  0.27522909  0.46846467  1
  O  O2246  1  0.02666055  0.27522909  0.71846467  1
  O  O2247  1  0.02666055  0.27522909  0.96846467  1
  O  O2248  1  0.02666055  0.52522909  0.21846467  1
  O  O2249  1  0.02666055  0.52522909  0.46846467  1
  O  O2250  1  0.02666055  0.52522909  0.71846467  1
  O  O2251  1  0.02666055  0.52522909  0.96846467  1
  O  O2252  1  0.02666055  0.77522909  0.21846467  1
  O  O2253  1  0.02666055  0.77522909  0.46846467  1
  O  O2254  1  0.02666055  0.77522909  0.71846467  1
  O  O2255  1  0.02666055  0.77522909  0.96846467  1
  O  O2256  1  0.27666055  0.02522909  0.21846467  1
  O  O2257  1  0.27666055  0.02522909  0.46846467  1
  O  O2258  1  0.27666055  0.02522909  0.71846467  1
  O  O2259  1  0.27666055  0.02522909  0.96846467  1
  O  O2260  1  0.27666055  0.27522909  0.21846467  1
  O  O2261  1  0.27666055  0.27522909  0.46846467  1
  O  O2262  1  0.27666055  0.27522909  0.71846467  1
  O  O2263  1  0.27666055  0.27522909  0.96846467  1
  O  O2264  1  0.27666055  0.52522909  0.21846467  1
  O  O2265  1  0.27666055  0.52522909  0.46846467  1
  O  O2266  1  0.27666055  0.52522909  0.71846467  1
  O  O2267  1  0.27666055  0.52522909  0.96846467  1
  O  O2268  1  0.27666055  0.77522909  0.21846467  1
  O  O2269  1  0.27666055  0.77522909  0.46846467  1
  O  O2270  1  0.27666055  0.77522909  0.71846467  1
  O  O2271  1  0.27666055  0.77522909  0.96846467  1
  O  O2272  1  0.52666055  0.02522909  0.21846467  1
  O  O2273  1  0.52666055  0.02522909  0.46846467  1
  O  O2274  1  0.52666055  0.02522909  0.71846467  1
  O  O2275  1  0.52666055  0.02522909  0.96846467  1
  O  O2276  1  0.52666055  0.27522909  0.21846467  1
  O  O2277  1  0.52666055  0.27522909  0.46846467  1
  O  O2278  1  0.52666055  0.27522909  0.71846467  1
  O  O2279  1  0.52666055  0.27522909  0.96846467  1
  O  O2280  1  0.52666055  0.52522909  0.21846467  1
  O  O2281  1  0.52666055  0.52522909  0.46846467  1
  O  O2282  1  0.52666055  0.52522909  0.71846467  1
  O  O2283  1  0.52666055  0.52522909  0.96846467  1
  O  O2284  1  0.52666055  0.77522909  0.21846467  1
  O  O2285  1  0.52666055  0.77522909  0.46846467  1
  O  O2286  1  0.52666055  0.77522909  0.71846467  1
  O  O2287  1  0.52666055  0.77522909  0.96846467  1
  O  O2288  1  0.77666055  0.02522909  0.21846467  1
  O  O2289  1  0.77666055  0.02522909  0.46846467  1
  O  O2290  1  0.77666055  0.02522909  0.71846467  1
  O  O2291  1  0.77666055  0.02522909  0.96846467  1
  O  O2292  1  0.77666055  0.27522909  0.21846467  1
  O  O2293  1  0.77666055  0.27522909  0.46846467  1
  O  O2294  1  0.77666055  0.27522909  0.71846467  1
  O  O2295  1  0.77666055  0.27522909  0.96846467  1
  O  O2296  1  0.77666055  0.52522909  0.21846467  1
  O  O2297  1  0.77666055  0.52522909  0.46846467  1
  O  O2298  1  0.77666055  0.52522909  0.71846467  1
  O  O2299  1  0.77666055  0.52522909  0.96846467  1
  O  O2300  1  0.77666055  0.77522909  0.21846467  1
  O  O2301  1  0.77666055  0.77522909  0.46846467  1
  O  O2302  1  0.77666055  0.77522909  0.71846467  1
  O  O2303  1  0.77666055  0.77522909  0.96846467  1
  O  O2304  1  0.15166157  0.09977119  0.03153588  1
  O  O2305  1  0.15166157  0.09977119  0.28153588  1
  O  O2306  1  0.15166157  0.09977119  0.53153588  1
  O  O2307  1  0.15166157  0.09977119  0.78153588  1
  O  O2308  1  0.15166157  0.34977119  0.03153588  1
  O  O2309  1  0.15166157  0.34977119  0.28153588  1
  O  O2310  1  0.15166157  0.34977119  0.53153588  1
  O  O2311  1  0.15166157  0.34977119  0.78153588  1
  O  O2312  1  0.15166157  0.59977119  0.03153588  1
  O  O2313  1  0.15166157  0.59977119  0.28153588  1
  O  O2314  1  0.15166157  0.59977119  0.53153588  1
  O  O2315  1  0.15166157  0.59977119  0.78153588  1
  O  O2316  1  0.15166157  0.84977119  0.03153588  1
  O  O2317  1  0.15166157  0.84977119  0.28153588  1
  O  O2318  1  0.15166157  0.84977119  0.53153588  1
  O  O2319  1  0.15166157  0.84977119  0.78153588  1
  O  O2320  1  0.40166157  0.09977119  0.03153588  1
  O  O2321  1  0.40166157  0.09977119  0.28153588  1
  O  O2322  1  0.40166157  0.09977119  0.53153588  1
  O  O2323  1  0.40166157  0.09977119  0.78153588  1
  O  O2324  1  0.40166157  0.34977119  0.03153588  1
  O  O2325  1  0.40166157  0.34977119  0.28153588  1
  O  O2326  1  0.40166157  0.34977119  0.53153588  1
  O  O2327  1  0.40166157  0.34977119  0.78153588  1
  O  O2328  1  0.40166157  0.59977119  0.03153588  1
  O  O2329  1  0.40166157  0.59977119  0.28153588  1
  O  O2330  1  0.40166157  0.59977119  0.53153588  1
  O  O2331  1  0.40166157  0.59977119  0.78153588  1
  O  O2332  1  0.40166157  0.84977119  0.03153588  1
  O  O2333  1  0.40166157  0.84977119  0.28153588  1
  O  O2334  1  0.40166157  0.84977119  0.53153588  1
  O  O2335  1  0.40166157  0.84977119  0.78153588  1
  O  O2336  1  0.65166157  0.09977119  0.03153588  1
  O  O2337  1  0.65166157  0.09977119  0.28153588  1
  O  O2338  1  0.65166157  0.09977119  0.53153588  1
  O  O2339  1  0.65166157  0.09977119  0.78153588  1
  O  O2340  1  0.65166157  0.34977119  0.03153588  1
  O  O2341  1  0.65166157  0.34977119  0.28153588  1
  O  O2342  1  0.65166157  0.34977119  0.53153588  1
  O  O2343  1  0.65166157  0.34977119  0.78153588  1
  O  O2344  1  0.65166157  0.59977119  0.03153588  1
  O  O2345  1  0.65166157  0.59977119  0.28153588  1
  O  O2346  1  0.65166157  0.59977119  0.53153588  1
  O  O2347  1  0.65166157  0.59977119  0.78153588  1
  O  O2348  1  0.65166157  0.84977119  0.03153588  1
  O  O2349  1  0.65166157  0.84977119  0.28153588  1
  O  O2350  1  0.65166157  0.84977119  0.53153588  1
  O  O2351  1  0.65166157  0.84977119  0.78153588  1
  O  O2352  1  0.90166157  0.09977119  0.03153588  1
  O  O2353  1  0.90166157  0.09977119  0.28153588  1
  O  O2354  1  0.90166157  0.09977119  0.53153588  1
  O  O2355  1  0.90166157  0.09977119  0.78153588  1
  O  O2356  1  0.90166157  0.34977119  0.03153588  1
  O  O2357  1  0.90166157  0.34977119  0.28153588  1
  O  O2358  1  0.90166157  0.34977119  0.53153588  1
  O  O2359  1  0.90166157  0.34977119  0.78153588  1
  O  O2360  1  0.90166157  0.59977119  0.03153588  1
  O  O2361  1  0.90166157  0.59977119  0.28153588  1
  O  O2362  1  0.90166157  0.59977119  0.53153588  1
  O  O2363  1  0.90166157  0.59977119  0.78153588  1
  O  O2364  1  0.90166157  0.84977119  0.03153588  1
  O  O2365  1  0.90166157  0.84977119  0.28153588  1
  O  O2366  1  0.90166157  0.84977119  0.53153588  1
  O  O2367  1  0.90166157  0.84977119  0.78153588  1
  O  O2368  1  0.09346411  0.09833866  0.22477030  1
  O  O2369  1  0.09346411  0.09833866  0.47477030  1
  O  O2370  1  0.09346411  0.09833866  0.72477030  1
  O  O2371  1  0.09346411  0.09833866  0.97477030  1
  O  O2372  1  0.09346411  0.34833866  0.22477030  1
  O  O2373  1  0.09346411  0.34833866  0.47477030  1
  O  O2374  1  0.09346411  0.34833866  0.72477030  1
  O  O2375  1  0.09346411  0.34833866  0.97477030  1
  O  O2376  1  0.09346411  0.59833866  0.22477030  1
  O  O2377  1  0.09346411  0.59833866  0.47477030  1
  O  O2378  1  0.09346411  0.59833866  0.72477030  1
  O  O2379  1  0.09346411  0.59833866  0.97477030  1
  O  O2380  1  0.09346411  0.84833866  0.22477030  1
  O  O2381  1  0.09346411  0.84833866  0.47477030  1
  O  O2382  1  0.09346411  0.84833866  0.72477030  1
  O  O2383  1  0.09346411  0.84833866  0.97477030  1
  O  O2384  1  0.34346411  0.09833866  0.22477030  1
  O  O2385  1  0.34346411  0.09833866  0.47477030  1
  O  O2386  1  0.34346411  0.09833866  0.72477030  1
  O  O2387  1  0.34346411  0.09833866  0.97477030  1
  O  O2388  1  0.34346411  0.34833866  0.22477030  1
  O  O2389  1  0.34346411  0.34833866  0.47477030  1
  O  O2390  1  0.34346411  0.34833866  0.72477030  1
  O  O2391  1  0.34346411  0.34833866  0.97477030  1
  O  O2392  1  0.34346411  0.59833866  0.22477030  1
  O  O2393  1  0.34346411  0.59833866  0.47477030  1
  O  O2394  1  0.34346411  0.59833866  0.72477030  1
  O  O2395  1  0.34346411  0.59833866  0.97477030  1
  O  O2396  1  0.34346411  0.84833866  0.22477030  1
  O  O2397  1  0.34346411  0.84833866  0.47477030  1
  O  O2398  1  0.34346411  0.84833866  0.72477030  1
  O  O2399  1  0.34346411  0.84833866  0.97477030  1
  O  O2400  1  0.59346411  0.09833866  0.22477030  1
  O  O2401  1  0.59346411  0.09833866  0.47477030  1
  O  O2402  1  0.59346411  0.09833866  0.72477030  1
  O  O2403  1  0.59346411  0.09833866  0.97477030  1
  O  O2404  1  0.59346411  0.34833866  0.22477030  1
  O  O2405  1  0.59346411  0.34833866  0.47477030  1
  O  O2406  1  0.59346411  0.34833866  0.72477030  1
  O  O2407  1  0.59346411  0.34833866  0.97477030  1
  O  O2408  1  0.59346411  0.59833866  0.22477030  1
  O  O2409  1  0.59346411  0.59833866  0.47477030  1
  O  O2410  1  0.59346411  0.59833866  0.72477030  1
  O  O2411  1  0.59346411  0.59833866  0.97477030  1
  O  O2412  1  0.59346411  0.84833866  0.22477030  1
  O  O2413  1  0.59346411  0.84833866  0.47477030  1
  O  O2414  1  0.59346411  0.84833866  0.72477030  1
  O  O2415  1  0.59346411  0.84833866  0.97477030  1
  O  O2416  1  0.84346411  0.09833866  0.22477030  1
  O  O2417  1  0.84346411  0.09833866  0.47477030  1
  O  O2418  1  0.84346411  0.09833866  0.72477030  1
  O  O2419  1  0.84346411  0.09833866  0.97477030  1
  O  O2420  1  0.84346411  0.34833866  0.22477030  1
  O  O2421  1  0.84346411  0.34833866  0.47477030  1
  O  O2422  1  0.84346411  0.34833866  0.72477030  1
  O  O2423  1  0.84346411  0.34833866  0.97477030  1
  O  O2424  1  0.84346411  0.59833866  0.22477030  1
  O  O2425  1  0.84346411  0.59833866  0.47477030  1
  O  O2426  1  0.84346411  0.59833866  0.72477030  1
  O  O2427  1  0.84346411  0.59833866  0.97477030  1
  O  O2428  1  0.84346411  0.84833866  0.22477030  1
  O  O2429  1  0.84346411  0.84833866  0.47477030  1
  O  O2430  1  0.84346411  0.84833866  0.72477030  1
  O  O2431  1  0.84346411  0.84833866  0.97477030  1
  O  O2432  1  0.09833931  0.22477045  0.09346512  1
  O  O2433  1  0.09833931  0.22477045  0.34346512  1
  O  O2434  1  0.09833931  0.22477045  0.59346512  1
  O  O2435  1  0.09833931  0.22477045  0.84346512  1
  O  O2436  1  0.09833931  0.47477045  0.09346512  1
  O  O2437  1  0.09833931  0.47477045  0.34346512  1
  O  O2438  1  0.09833931  0.47477045  0.59346512  1
  O  O2439  1  0.09833931  0.47477045  0.84346512  1
  O  O2440  1  0.09833931  0.72477045  0.09346512  1
  O  O2441  1  0.09833931  0.72477045  0.34346512  1
  O  O2442  1  0.09833931  0.72477045  0.59346512  1
  O  O2443  1  0.09833931  0.72477045  0.84346512  1
  O  O2444  1  0.09833931  0.97477045  0.09346512  1
  O  O2445  1  0.09833931  0.97477045  0.34346512  1
  O  O2446  1  0.09833931  0.97477045  0.59346512  1
  O  O2447  1  0.09833931  0.97477045  0.84346512  1
  O  O2448  1  0.34833931  0.22477045  0.09346512  1
  O  O2449  1  0.34833931  0.22477045  0.34346512  1
  O  O2450  1  0.34833931  0.22477045  0.59346512  1
  O  O2451  1  0.34833931  0.22477045  0.84346512  1
  O  O2452  1  0.34833931  0.47477045  0.09346512  1
  O  O2453  1  0.34833931  0.47477045  0.34346512  1
  O  O2454  1  0.34833931  0.47477045  0.59346512  1
  O  O2455  1  0.34833931  0.47477045  0.84346512  1
  O  O2456  1  0.34833931  0.72477045  0.09346512  1
  O  O2457  1  0.34833931  0.72477045  0.34346512  1
  O  O2458  1  0.34833931  0.72477045  0.59346512  1
  O  O2459  1  0.34833931  0.72477045  0.84346512  1
  O  O2460  1  0.34833931  0.97477045  0.09346512  1
  O  O2461  1  0.34833931  0.97477045  0.34346512  1
  O  O2462  1  0.34833931  0.97477045  0.59346512  1
  O  O2463  1  0.34833931  0.97477045  0.84346512  1
  O  O2464  1  0.59833931  0.22477045  0.09346512  1
  O  O2465  1  0.59833931  0.22477045  0.34346512  1
  O  O2466  1  0.59833931  0.22477045  0.59346512  1
  O  O2467  1  0.59833931  0.22477045  0.84346512  1
  O  O2468  1  0.59833931  0.47477045  0.09346512  1
  O  O2469  1  0.59833931  0.47477045  0.34346512  1
  O  O2470  1  0.59833931  0.47477045  0.59346512  1
  O  O2471  1  0.59833931  0.47477045  0.84346512  1
  O  O2472  1  0.59833931  0.72477045  0.09346512  1
  O  O2473  1  0.59833931  0.72477045  0.34346512  1
  O  O2474  1  0.59833931  0.72477045  0.59346512  1
  O  O2475  1  0.59833931  0.72477045  0.84346512  1
  O  O2476  1  0.59833931  0.97477045  0.09346512  1
  O  O2477  1  0.59833931  0.97477045  0.34346512  1
  O  O2478  1  0.59833931  0.97477045  0.59346512  1
  O  O2479  1  0.59833931  0.97477045  0.84346512  1
  O  O2480  1  0.84833931  0.22477045  0.09346512  1
  O  O2481  1  0.84833931  0.22477045  0.34346512  1
  O  O2482  1  0.84833931  0.22477045  0.59346512  1
  O  O2483  1  0.84833931  0.22477045  0.84346512  1
  O  O2484  1  0.84833931  0.47477045  0.09346512  1
  O  O2485  1  0.84833931  0.47477045  0.34346512  1
  O  O2486  1  0.84833931  0.47477045  0.59346512  1
  O  O2487  1  0.84833931  0.47477045  0.84346512  1
  O  O2488  1  0.84833931  0.72477045  0.09346512  1
  O  O2489  1  0.84833931  0.72477045  0.34346512  1
  O  O2490  1  0.84833931  0.72477045  0.59346512  1
  O  O2491  1  0.84833931  0.72477045  0.84346512  1
  O  O2492  1  0.84833931  0.97477045  0.09346512  1
  O  O2493  1  0.84833931  0.97477045  0.34346512  1
  O  O2494  1  0.84833931  0.97477045  0.59346512  1
  O  O2495  1  0.84833931  0.97477045  0.84346512  1
  O  O2496  1  0.21846477  0.02666044  0.02522908  1
  O  O2497  1  0.21846476  0.02666044  0.27522907  1
  O  O2498  1  0.21846477  0.02666044  0.52522908  1
  O  O2499  1  0.21846476  0.02666044  0.77522908  1
  O  O2500  1  0.21846476  0.27666044  0.02522908  1
  O  O2501  1  0.21846476  0.27666044  0.27522907  1
  O  O2502  1  0.21846476  0.27666044  0.52522908  1
  O  O2503  1  0.21846477  0.27666044  0.77522907  1
  O  O2504  1  0.21846476  0.52666044  0.02522908  1
  O  O2505  1  0.21846476  0.52666044  0.27522907  1
  O  O2506  1  0.21846476  0.52666044  0.52522907  1
  O  O2507  1  0.21846476  0.52666044  0.77522908  1
  O  O2508  1  0.21846476  0.77666044  0.02522908  1
  O  O2509  1  0.21846476  0.77666044  0.27522907  1
  O  O2510  1  0.21846477  0.77666044  0.52522908  1
  O  O2511  1  0.21846476  0.77666044  0.77522907  1
  O  O2512  1  0.46846476  0.02666044  0.02522908  1
  O  O2513  1  0.46846476  0.02666044  0.27522907  1
  O  O2514  1  0.46846477  0.02666044  0.52522908  1
  O  O2515  1  0.46846477  0.02666044  0.77522907  1
  O  O2516  1  0.46846476  0.27666043  0.02522908  1
  O  O2517  1  0.46846477  0.27666044  0.27522907  1
  O  O2518  1  0.46846477  0.27666044  0.52522908  1
  O  O2519  1  0.46846477  0.27666044  0.77522908  1
  O  O2520  1  0.46846476  0.52666044  0.02522908  1
  O  O2521  1  0.46846476  0.52666044  0.27522907  1
  O  O2522  1  0.46846476  0.52666044  0.52522908  1
  O  O2523  1  0.46846476  0.52666044  0.77522908  1
  O  O2524  1  0.46846477  0.77666044  0.02522908  1
  O  O2525  1  0.46846476  0.77666044  0.27522907  1
  O  O2526  1  0.46846476  0.77666044  0.52522908  1
  O  O2527  1  0.46846476  0.77666044  0.77522907  1
  O  O2528  1  0.71846476  0.02666044  0.02522908  1
  O  O2529  1  0.71846476  0.02666044  0.27522907  1
  O  O2530  1  0.71846477  0.02666044  0.52522908  1
  O  O2531  1  0.71846476  0.02666044  0.77522907  1
  O  O2532  1  0.71846476  0.27666043  0.02522908  1
  O  O2533  1  0.71846477  0.27666044  0.27522908  1
  O  O2534  1  0.71846476  0.27666044  0.52522907  1
  O  O2535  1  0.71846476  0.27666044  0.77522908  1
  O  O2536  1  0.71846477  0.52666044  0.02522908  1
  O  O2537  1  0.71846476  0.52666044  0.27522907  1
  O  O2538  1  0.71846477  0.52666044  0.52522908  1
  O  O2539  1  0.71846476  0.52666044  0.77522908  1
  O  O2540  1  0.71846476  0.77666044  0.02522908  1
  O  O2541  1  0.71846477  0.77666044  0.27522907  1
  O  O2542  1  0.71846477  0.77666044  0.52522908  1
  O  O2543  1  0.71846476  0.77666044  0.77522907  1
  O  O2544  1  0.96846477  0.02666044  0.02522908  1
  O  O2545  1  0.96846476  0.02666044  0.27522907  1
  O  O2546  1  0.96846476  0.02666043  0.52522908  1
  O  O2547  1  0.96846477  0.02666044  0.77522907  1
  O  O2548  1  0.96846477  0.27666043  0.02522908  1
  O  O2549  1  0.96846476  0.27666044  0.27522908  1
  O  O2550  1  0.96846476  0.27666044  0.52522907  1
  O  O2551  1  0.96846476  0.27666044  0.77522908  1
  O  O2552  1  0.96846477  0.52666044  0.02522908  1
  O  O2553  1  0.96846476  0.52666044  0.27522907  1
  O  O2554  1  0.96846476  0.52666044  0.52522908  1
  O  O2555  1  0.96846477  0.52666044  0.77522907  1
  O  O2556  1  0.96846477  0.77666044  0.02522908  1
  O  O2557  1  0.96846476  0.77666044  0.27522907  1
  O  O2558  1  0.96846476  0.77666044  0.52522908  1
  O  O2559  1  0.96846477  0.77666044  0.77522907  1
  O  O2560  1  0.22103927  0.22103904  0.22104110  1
  O  O2561  1  0.22103927  0.22103904  0.47104110  1
  O  O2562  1  0.22103927  0.22103904  0.72104110  1
  O  O2563  1  0.22103927  0.22103904  0.97104110  1
  O  O2564  1  0.22103927  0.47103904  0.22104110  1
  O  O2565  1  0.22103927  0.47103904  0.47104110  1
  O  O2566  1  0.22103927  0.47103904  0.72104110  1
  O  O2567  1  0.22103927  0.47103904  0.97104110  1
  O  O2568  1  0.22103927  0.72103904  0.22104110  1
  O  O2569  1  0.22103927  0.72103904  0.47104110  1
  O  O2570  1  0.22103927  0.72103904  0.72104110  1
  O  O2571  1  0.22103927  0.72103904  0.97104110  1
  O  O2572  1  0.22103927  0.97103904  0.22104110  1
  O  O2573  1  0.22103927  0.97103904  0.47104110  1
  O  O2574  1  0.22103927  0.97103904  0.72104110  1
  O  O2575  1  0.22103927  0.97103904  0.97104110  1
  O  O2576  1  0.47103927  0.22103904  0.22104110  1
  O  O2577  1  0.47103927  0.22103904  0.47104110  1
  O  O2578  1  0.47103927  0.22103904  0.72104110  1
  O  O2579  1  0.47103927  0.22103904  0.97104110  1
  O  O2580  1  0.47103927  0.47103904  0.22104110  1
  O  O2581  1  0.47103927  0.47103904  0.47104110  1
  O  O2582  1  0.47103927  0.47103904  0.72104110  1
  O  O2583  1  0.47103927  0.47103904  0.97104110  1
  O  O2584  1  0.47103927  0.72103904  0.22104110  1
  O  O2585  1  0.47103927  0.72103904  0.47104110  1
  O  O2586  1  0.47103927  0.72103904  0.72104110  1
  O  O2587  1  0.47103927  0.72103904  0.97104110  1
  O  O2588  1  0.47103927  0.97103904  0.22104110  1
  O  O2589  1  0.47103927  0.97103904  0.47104110  1
  O  O2590  1  0.47103927  0.97103904  0.72104110  1
  O  O2591  1  0.47103927  0.97103904  0.97104110  1
  O  O2592  1  0.72103927  0.22103904  0.22104110  1
  O  O2593  1  0.72103927  0.22103904  0.47104110  1
  O  O2594  1  0.72103927  0.22103904  0.72104110  1
  O  O2595  1  0.72103927  0.22103904  0.97104110  1
  O  O2596  1  0.72103927  0.47103904  0.22104110  1
  O  O2597  1  0.72103927  0.47103904  0.47104110  1
  O  O2598  1  0.72103927  0.47103904  0.72104110  1
  O  O2599  1  0.72103927  0.47103904  0.97104110  1
  O  O2600  1  0.72103927  0.72103904  0.22104110  1
  O  O2601  1  0.72103927  0.72103904  0.47104110  1
  O  O2602  1  0.72103927  0.72103904  0.72104110  1
  O  O2603  1  0.72103927  0.72103904  0.97104110  1
  O  O2604  1  0.72103927  0.97103904  0.22104110  1
  O  O2605  1  0.72103927  0.97103904  0.47104110  1
  O  O2606  1  0.72103927  0.97103904  0.72104110  1
  O  O2607  1  0.72103927  0.97103904  0.97104110  1
  O  O2608  1  0.97103927  0.22103904  0.22104110  1
  O  O2609  1  0.97103927  0.22103904  0.47104110  1
  O  O2610  1  0.97103927  0.22103904  0.72104110  1
  O  O2611  1  0.97103927  0.22103904  0.97104110  1
  O  O2612  1  0.97103927  0.47103904  0.22104110  1
  O  O2613  1  0.97103927  0.47103904  0.47104110  1
  O  O2614  1  0.97103927  0.47103904  0.72104110  1
  O  O2615  1  0.97103927  0.47103904  0.97104110  1
  O  O2616  1  0.97103927  0.72103904  0.22104110  1
  O  O2617  1  0.97103927  0.72103904  0.47104110  1
  O  O2618  1  0.97103927  0.72103904  0.72104110  1
  O  O2619  1  0.97103927  0.72103904  0.97104110  1
  O  O2620  1  0.97103927  0.97103904  0.22104110  1
  O  O2621  1  0.97103927  0.97103904  0.47104110  1
  O  O2622  1  0.97103927  0.97103904  0.72104110  1
  O  O2623  1  0.97103927  0.97103904  0.97104110  1
  O  O2624  1  0.15853808  0.21646182  0.03353747  1
  O  O2625  1  0.15853808  0.21646182  0.28353747  1
  O  O2626  1  0.15853808  0.21646182  0.53353747  1
  O  O2627  1  0.15853808  0.21646182  0.78353747  1
  O  O2628  1  0.15853808  0.46646182  0.03353747  1
  O  O2629  1  0.15853808  0.46646182  0.28353747  1
  O  O2630  1  0.15853808  0.46646182  0.53353747  1
  O  O2631  1  0.15853808  0.46646182  0.78353747  1
  O  O2632  1  0.15853808  0.71646182  0.03353747  1
  O  O2633  1  0.15853808  0.71646182  0.28353747  1
  O  O2634  1  0.15853808  0.71646182  0.53353747  1
  O  O2635  1  0.15853808  0.71646182  0.78353747  1
  O  O2636  1  0.15853808  0.96646182  0.03353747  1
  O  O2637  1  0.15853808  0.96646182  0.28353747  1
  O  O2638  1  0.15853808  0.96646182  0.53353747  1
  O  O2639  1  0.15853808  0.96646182  0.78353747  1
  O  O2640  1  0.40853808  0.21646182  0.03353747  1
  O  O2641  1  0.40853808  0.21646182  0.28353747  1
  O  O2642  1  0.40853808  0.21646182  0.53353747  1
  O  O2643  1  0.40853808  0.21646182  0.78353747  1
  O  O2644  1  0.40853808  0.46646182  0.03353747  1
  O  O2645  1  0.40853808  0.46646182  0.28353747  1
  O  O2646  1  0.40853808  0.46646182  0.53353747  1
  O  O2647  1  0.40853808  0.46646182  0.78353747  1
  O  O2648  1  0.40853808  0.71646182  0.03353747  1
  O  O2649  1  0.40853808  0.71646182  0.28353747  1
  O  O2650  1  0.40853808  0.71646182  0.53353747  1
  O  O2651  1  0.40853808  0.71646182  0.78353747  1
  O  O2652  1  0.40853808  0.96646182  0.03353747  1
  O  O2653  1  0.40853808  0.96646182  0.28353747  1
  O  O2654  1  0.40853808  0.96646182  0.53353747  1
  O  O2655  1  0.40853808  0.96646182  0.78353747  1
  O  O2656  1  0.65853808  0.21646182  0.03353747  1
  O  O2657  1  0.65853808  0.21646182  0.28353747  1
  O  O2658  1  0.65853808  0.21646182  0.53353747  1
  O  O2659  1  0.65853808  0.21646182  0.78353747  1
  O  O2660  1  0.65853808  0.46646182  0.03353747  1
  O  O2661  1  0.65853808  0.46646182  0.28353747  1
  O  O2662  1  0.65853808  0.46646182  0.53353747  1
  O  O2663  1  0.65853808  0.46646182  0.78353747  1
  O  O2664  1  0.65853808  0.71646182  0.03353747  1
  O  O2665  1  0.65853808  0.71646182  0.28353747  1
  O  O2666  1  0.65853808  0.71646182  0.53353747  1
  O  O2667  1  0.65853808  0.71646182  0.78353747  1
  O  O2668  1  0.65853808  0.96646182  0.03353747  1
  O  O2669  1  0.65853808  0.96646182  0.28353747  1
  O  O2670  1  0.65853808  0.96646182  0.53353747  1
  O  O2671  1  0.65853808  0.96646182  0.78353747  1
  O  O2672  1  0.90853808  0.21646182  0.03353747  1
  O  O2673  1  0.90853808  0.21646182  0.28353747  1
  O  O2674  1  0.90853808  0.21646182  0.53353747  1
  O  O2675  1  0.90853808  0.21646182  0.78353747  1
  O  O2676  1  0.90853808  0.46646182  0.03353747  1
  O  O2677  1  0.90853808  0.46646182  0.28353747  1
  O  O2678  1  0.90853808  0.46646182  0.53353747  1
  O  O2679  1  0.90853808  0.46646182  0.78353747  1
  O  O2680  1  0.90853808  0.71646182  0.03353747  1
  O  O2681  1  0.90853808  0.71646182  0.28353747  1
  O  O2682  1  0.90853808  0.71646182  0.53353747  1
  O  O2683  1  0.90853808  0.71646182  0.78353747  1
  O  O2684  1  0.90853808  0.96646182  0.03353747  1
  O  O2685  1  0.90853808  0.96646182  0.28353747  1
  O  O2686  1  0.90853808  0.96646182  0.53353747  1
  O  O2687  1  0.90853808  0.96646182  0.78353747  1
  O  O2688  1  0.03353833  0.15853804  0.21646046  1
  O  O2689  1  0.03353833  0.15853804  0.46646046  1
  O  O2690  1  0.03353833  0.15853803  0.71646046  1
  O  O2691  1  0.03353833  0.15853803  0.96646046  1
  O  O2692  1  0.03353833  0.40853804  0.21646046  1
  O  O2693  1  0.03353833  0.40853804  0.46646046  1
  O  O2694  1  0.03353833  0.40853804  0.71646046  1
  O  O2695  1  0.03353833  0.40853804  0.96646046  1
  O  O2696  1  0.03353833  0.65853803  0.21646046  1
  O  O2697  1  0.03353833  0.65853803  0.46646046  1
  O  O2698  1  0.03353834  0.65853804  0.71646046  1
  O  O2699  1  0.03353834  0.65853804  0.96646046  1
  O  O2700  1  0.03353833  0.90853804  0.21646046  1
  O  O2701  1  0.03353833  0.90853804  0.46646046  1
  O  O2702  1  0.03353833  0.90853804  0.71646046  1
  O  O2703  1  0.03353833  0.90853804  0.96646046  1
  O  O2704  1  0.28353833  0.15853803  0.21646046  1
  O  O2705  1  0.28353833  0.15853804  0.46646046  1
  O  O2706  1  0.28353833  0.15853803  0.71646046  1
  O  O2707  1  0.28353834  0.15853804  0.96646046  1
  O  O2708  1  0.28353834  0.40853804  0.21646046  1
  O  O2709  1  0.28353833  0.40853804  0.46646046  1
  O  O2710  1  0.28353834  0.40853804  0.71646046  1
  O  O2711  1  0.28353834  0.40853804  0.96646046  1
  O  O2712  1  0.28353833  0.65853803  0.21646046  1
  O  O2713  1  0.28353833  0.65853803  0.46646046  1
  O  O2714  1  0.28353833  0.65853804  0.71646046  1
  O  O2715  1  0.28353833  0.65853804  0.96646046  1
  O  O2716  1  0.28353834  0.90853804  0.21646046  1
  O  O2717  1  0.28353833  0.90853804  0.46646046  1
  O  O2718  1  0.28353833  0.90853804  0.71646046  1
  O  O2719  1  0.28353833  0.90853804  0.96646046  1
  O  O2720  1  0.53353833  0.15853803  0.21646046  1
  O  O2721  1  0.53353833  0.15853804  0.46646046  1
  O  O2722  1  0.53353833  0.15853803  0.71646046  1
  O  O2723  1  0.53353833  0.15853803  0.96646046  1
  O  O2724  1  0.53353834  0.40853804  0.21646046  1
  O  O2725  1  0.53353833  0.40853804  0.46646046  1
  O  O2726  1  0.53353833  0.40853804  0.71646046  1
  O  O2727  1  0.53353834  0.40853804  0.96646046  1
  O  O2728  1  0.53353834  0.65853803  0.21646046  1
  O  O2729  1  0.53353833  0.65853803  0.46646046  1
  O  O2730  1  0.53353834  0.65853804  0.71646046  1
  O  O2731  1  0.53353833  0.65853804  0.96646046  1
  O  O2732  1  0.53353834  0.90853804  0.21646046  1
  O  O2733  1  0.53353834  0.90853804  0.46646046  1
  O  O2734  1  0.53353833  0.90853804  0.71646046  1
  O  O2735  1  0.53353834  0.90853803  0.96646046  1
  O  O2736  1  0.78353834  0.15853803  0.21646046  1
  O  O2737  1  0.78353833  0.15853803  0.46646046  1
  O  O2738  1  0.78353833  0.15853804  0.71646046  1
  O  O2739  1  0.78353834  0.15853804  0.96646046  1
  O  O2740  1  0.78353833  0.40853804  0.21646046  1
  O  O2741  1  0.78353833  0.40853804  0.46646046  1
  O  O2742  1  0.78353834  0.40853804  0.71646046  1
  O  O2743  1  0.78353833  0.40853804  0.96646046  1
  O  O2744  1  0.78353834  0.65853803  0.21646046  1
  O  O2745  1  0.78353834  0.65853803  0.46646046  1
  O  O2746  1  0.78353833  0.65853804  0.71646046  1
  O  O2747  1  0.78353834  0.65853804  0.96646046  1
  O  O2748  1  0.78353834  0.90853804  0.21646046  1
  O  O2749  1  0.78353833  0.90853804  0.46646046  1
  O  O2750  1  0.78353834  0.90853804  0.71646046  1
  O  O2751  1  0.78353833  0.90853803  0.96646046  1
  O  O2752  1  0.21646096  0.03354047  0.15853896  1
  O  O2753  1  0.21646096  0.03354047  0.40853896  1
  O  O2754  1  0.21646096  0.03354047  0.65853896  1
  O  O2755  1  0.21646095  0.03354047  0.90853896  1
  O  O2756  1  0.21646095  0.28354047  0.15853896  1
  O  O2757  1  0.21646095  0.28354047  0.40853896  1
  O  O2758  1  0.21646096  0.28354047  0.65853896  1
  O  O2759  1  0.21646095  0.28354047  0.90853896  1
  O  O2760  1  0.21646096  0.53354047  0.15853896  1
  O  O2761  1  0.21646095  0.53354047  0.40853896  1
  O  O2762  1  0.21646095  0.53354047  0.65853896  1
  O  O2763  1  0.21646095  0.53354047  0.90853896  1
  O  O2764  1  0.21646096  0.78354047  0.15853896  1
  O  O2765  1  0.21646095  0.78354047  0.40853896  1
  O  O2766  1  0.21646096  0.78354047  0.65853896  1
  O  O2767  1  0.21646095  0.78354047  0.90853896  1
  O  O2768  1  0.46646096  0.03354047  0.15853896  1
  O  O2769  1  0.46646095  0.03354047  0.40853896  1
  O  O2770  1  0.46646096  0.03354047  0.65853896  1
  O  O2771  1  0.46646095  0.03354047  0.90853896  1
  O  O2772  1  0.46646096  0.28354047  0.15853896  1
  O  O2773  1  0.46646095  0.28354047  0.40853896  1
  O  O2774  1  0.46646096  0.28354047  0.65853896  1
  O  O2775  1  0.46646095  0.28354047  0.90853896  1
  O  O2776  1  0.46646095  0.53354047  0.15853896  1
  O  O2777  1  0.46646095  0.53354047  0.40853896  1
  O  O2778  1  0.46646095  0.53354047  0.65853896  1
  O  O2779  1  0.46646096  0.53354047  0.90853896  1
  O  O2780  1  0.46646095  0.78354047  0.15853896  1
  O  O2781  1  0.46646096  0.78354047  0.40853896  1
  O  O2782  1  0.46646096  0.78354047  0.65853896  1
  O  O2783  1  0.46646096  0.78354047  0.90853896  1
  O  O2784  1  0.71646095  0.03354047  0.15853896  1
  O  O2785  1  0.71646095  0.03354047  0.40853896  1
  O  O2786  1  0.71646095  0.03354047  0.65853896  1
  O  O2787  1  0.71646096  0.03354047  0.90853896  1
  O  O2788  1  0.71646096  0.28354047  0.15853896  1
  O  O2789  1  0.71646095  0.28354047  0.40853896  1
  O  O2790  1  0.71646095  0.28354047  0.65853896  1
  O  O2791  1  0.71646095  0.28354047  0.90853896  1
  O  O2792  1  0.71646096  0.53354047  0.15853896  1
  O  O2793  1  0.71646095  0.53354047  0.40853896  1
  O  O2794  1  0.71646095  0.53354047  0.65853896  1
  O  O2795  1  0.71646096  0.53354047  0.90853896  1
  O  O2796  1  0.71646096  0.78354047  0.15853896  1
  O  O2797  1  0.71646095  0.78354047  0.40853896  1
  O  O2798  1  0.71646096  0.78354047  0.65853896  1
  O  O2799  1  0.71646095  0.78354047  0.90853896  1
  O  O2800  1  0.96646095  0.03354047  0.15853896  1
  O  O2801  1  0.96646095  0.03354047  0.40853896  1
  O  O2802  1  0.96646095  0.03354047  0.65853896  1
  O  O2803  1  0.96646095  0.03354047  0.90853896  1
  O  O2804  1  0.96646095  0.28354047  0.15853896  1
  O  O2805  1  0.96646095  0.28354047  0.40853896  1
  O  O2806  1  0.96646095  0.28354047  0.65853896  1
  O  O2807  1  0.96646095  0.28354047  0.90853896  1
  O  O2808  1  0.96646095  0.53354047  0.15853896  1
  O  O2809  1  0.96646095  0.53354047  0.40853896  1
  O  O2810  1  0.96646095  0.53354047  0.65853896  1
  O  O2811  1  0.96646095  0.53354047  0.90853896  1
  O  O2812  1  0.96646095  0.78354047  0.15853896  1
  O  O2813  1  0.96646095  0.78354047  0.40853896  1
  O  O2814  1  0.96646095  0.78354047  0.65853896  1
  O  O2815  1  0.96646096  0.78354047  0.90853896  1
  O  O2816  1  0.15653512  0.22333900  0.15022805  1
  O  O2817  1  0.15653512  0.22333900  0.40022805  1
  O  O2818  1  0.15653512  0.22333900  0.65022805  1
  O  O2819  1  0.15653512  0.22333900  0.90022805  1
  O  O2820  1  0.15653512  0.47333900  0.15022805  1
  O  O2821  1  0.15653512  0.47333900  0.40022805  1
  O  O2822  1  0.15653512  0.47333900  0.65022805  1
  O  O2823  1  0.15653512  0.47333900  0.90022805  1
  O  O2824  1  0.15653512  0.72333900  0.15022805  1
  O  O2825  1  0.15653512  0.72333900  0.40022805  1
  O  O2826  1  0.15653512  0.72333900  0.65022805  1
  O  O2827  1  0.15653512  0.72333900  0.90022805  1
  O  O2828  1  0.15653512  0.97333900  0.15022805  1
  O  O2829  1  0.15653512  0.97333900  0.40022805  1
  O  O2830  1  0.15653512  0.97333900  0.65022805  1
  O  O2831  1  0.15653512  0.97333900  0.90022805  1
  O  O2832  1  0.40653512  0.22333900  0.15022805  1
  O  O2833  1  0.40653512  0.22333900  0.40022805  1
  O  O2834  1  0.40653512  0.22333900  0.65022805  1
  O  O2835  1  0.40653512  0.22333900  0.90022805  1
  O  O2836  1  0.40653512  0.47333900  0.15022805  1
  O  O2837  1  0.40653512  0.47333900  0.40022805  1
  O  O2838  1  0.40653512  0.47333900  0.65022805  1
  O  O2839  1  0.40653512  0.47333900  0.90022805  1
  O  O2840  1  0.40653512  0.72333900  0.15022805  1
  O  O2841  1  0.40653512  0.72333900  0.40022805  1
  O  O2842  1  0.40653512  0.72333900  0.65022805  1
  O  O2843  1  0.40653512  0.72333900  0.90022805  1
  O  O2844  1  0.40653512  0.97333900  0.15022805  1
  O  O2845  1  0.40653512  0.97333900  0.40022805  1
  O  O2846  1  0.40653512  0.97333900  0.65022805  1
  O  O2847  1  0.40653512  0.97333900  0.90022805  1
  O  O2848  1  0.65653512  0.22333900  0.15022805  1
  O  O2849  1  0.65653512  0.22333900  0.40022805  1
  O  O2850  1  0.65653512  0.22333900  0.65022805  1
  O  O2851  1  0.65653512  0.22333900  0.90022805  1
  O  O2852  1  0.65653512  0.47333900  0.15022805  1
  O  O2853  1  0.65653512  0.47333900  0.40022805  1
  O  O2854  1  0.65653512  0.47333900  0.65022805  1
  O  O2855  1  0.65653512  0.47333900  0.90022805  1
  O  O2856  1  0.65653512  0.72333900  0.15022805  1
  O  O2857  1  0.65653512  0.72333900  0.40022805  1
  O  O2858  1  0.65653512  0.72333900  0.65022805  1
  O  O2859  1  0.65653512  0.72333900  0.90022805  1
  O  O2860  1  0.65653512  0.97333900  0.15022805  1
  O  O2861  1  0.65653512  0.97333900  0.40022805  1
  O  O2862  1  0.65653512  0.97333900  0.65022805  1
  O  O2863  1  0.65653512  0.97333900  0.90022805  1
  O  O2864  1  0.90653512  0.22333900  0.15022805  1
  O  O2865  1  0.90653512  0.22333900  0.40022805  1
  O  O2866  1  0.90653512  0.22333900  0.65022805  1
  O  O2867  1  0.90653512  0.22333900  0.90022805  1
  O  O2868  1  0.90653512  0.47333900  0.15022805  1
  O  O2869  1  0.90653512  0.47333900  0.40022805  1
  O  O2870  1  0.90653512  0.47333900  0.65022805  1
  O  O2871  1  0.90653512  0.47333900  0.90022805  1
  O  O2872  1  0.90653512  0.72333900  0.15022805  1
  O  O2873  1  0.90653512  0.72333900  0.40022805  1
  O  O2874  1  0.90653512  0.72333900  0.65022805  1
  O  O2875  1  0.90653512  0.72333900  0.90022805  1
  O  O2876  1  0.90653512  0.97333900  0.15022805  1
  O  O2877  1  0.90653512  0.97333900  0.40022805  1
  O  O2878  1  0.90653512  0.97333900  0.65022805  1
  O  O2879  1  0.90653512  0.97333900  0.90022805  1
  O  O2880  1  0.09604042  0.15396112  0.02896107  1
  O  O2881  1  0.09604042  0.15396112  0.27896106  1
  O  O2882  1  0.09604042  0.15396112  0.52896106  1
  O  O2883  1  0.09604042  0.15396112  0.77896107  1
  O  O2884  1  0.09604042  0.40396112  0.02896107  1
  O  O2885  1  0.09604042  0.40396112  0.27896106  1
  O  O2886  1  0.09604042  0.40396112  0.52896107  1
  O  O2887  1  0.09604042  0.40396112  0.77896106  1
  O  O2888  1  0.09604042  0.65396112  0.02896107  1
  O  O2889  1  0.09604042  0.65396112  0.27896106  1
  O  O2890  1  0.09604042  0.65396112  0.52896106  1
  O  O2891  1  0.09604042  0.65396112  0.77896106  1
  O  O2892  1  0.09604042  0.90396112  0.02896107  1
  O  O2893  1  0.09604042  0.90396112  0.27896107  1
  O  O2894  1  0.09604042  0.90396112  0.52896106  1
  O  O2895  1  0.09604042  0.90396112  0.77896106  1
  O  O2896  1  0.34604042  0.15396112  0.02896107  1
  O  O2897  1  0.34604042  0.15396112  0.27896107  1
  O  O2898  1  0.34604042  0.15396112  0.52896106  1
  O  O2899  1  0.34604042  0.15396112  0.77896106  1
  O  O2900  1  0.34604042  0.40396112  0.02896107  1
  O  O2901  1  0.34604042  0.40396112  0.27896106  1
  O  O2902  1  0.34604042  0.40396112  0.52896107  1
  O  O2903  1  0.34604042  0.40396112  0.77896106  1
  O  O2904  1  0.34604042  0.65396112  0.02896107  1
  O  O2905  1  0.34604042  0.65396112  0.27896106  1
  O  O2906  1  0.34604042  0.65396112  0.52896106  1
  O  O2907  1  0.34604042  0.65396112  0.77896106  1
  O  O2908  1  0.34604042  0.90396112  0.02896107  1
  O  O2909  1  0.34604042  0.90396112  0.27896106  1
  O  O2910  1  0.34604042  0.90396112  0.52896106  1
  O  O2911  1  0.34604042  0.90396112  0.77896106  1
  O  O2912  1  0.59604042  0.15396112  0.02896107  1
  O  O2913  1  0.59604042  0.15396112  0.27896107  1
  O  O2914  1  0.59604042  0.15396112  0.52896106  1
  O  O2915  1  0.59604042  0.15396112  0.77896106  1
  O  O2916  1  0.59604042  0.40396112  0.02896107  1
  O  O2917  1  0.59604042  0.40396112  0.27896107  1
  O  O2918  1  0.59604042  0.40396112  0.52896106  1
  O  O2919  1  0.59604042  0.40396112  0.77896106  1
  O  O2920  1  0.59604042  0.65396112  0.02896107  1
  O  O2921  1  0.59604042  0.65396112  0.27896106  1
  O  O2922  1  0.59604042  0.65396112  0.52896106  1
  O  O2923  1  0.59604042  0.65396112  0.77896106  1
  O  O2924  1  0.59604042  0.90396112  0.02896107  1
  O  O2925  1  0.59604042  0.90396112  0.27896106  1
  O  O2926  1  0.59604042  0.90396112  0.52896106  1
  O  O2927  1  0.59604042  0.90396112  0.77896106  1
  O  O2928  1  0.84604042  0.15396112  0.02896107  1
  O  O2929  1  0.84604042  0.15396112  0.27896106  1
  O  O2930  1  0.84604042  0.15396112  0.52896106  1
  O  O2931  1  0.84604042  0.15396112  0.77896106  1
  O  O2932  1  0.84604042  0.40396112  0.02896107  1
  O  O2933  1  0.84604042  0.40396112  0.27896107  1
  O  O2934  1  0.84604042  0.40396112  0.52896106  1
  O  O2935  1  0.84604042  0.40396112  0.77896106  1
  O  O2936  1  0.84604042  0.65396112  0.02896107  1
  O  O2937  1  0.84604042  0.65396112  0.27896107  1
  O  O2938  1  0.84604042  0.65396112  0.52896106  1
  O  O2939  1  0.84604042  0.65396112  0.77896106  1
  O  O2940  1  0.84604042  0.90396112  0.02896107  1
  O  O2941  1  0.84604042  0.90396112  0.27896106  1
  O  O2942  1  0.84604042  0.90396112  0.52896107  1
  O  O2943  1  0.84604042  0.90396112  0.77896106  1
  O  O2944  1  0.02896255  0.09603758  0.15396282  1
  O  O2945  1  0.02896255  0.09603758  0.40396282  1
  O  O2946  1  0.02896255  0.09603758  0.65396282  1
  O  O2947  1  0.02896255  0.09603758  0.90396282  1
  O  O2948  1  0.02896255  0.34603757  0.15396282  1
  O  O2949  1  0.02896255  0.34603758  0.40396282  1
  O  O2950  1  0.02896255  0.34603758  0.65396282  1
  O  O2951  1  0.02896255  0.34603757  0.90396282  1
  O  O2952  1  0.02896255  0.59603757  0.15396282  1
  O  O2953  1  0.02896255  0.59603757  0.40396282  1
  O  O2954  1  0.02896255  0.59603758  0.65396282  1
  O  O2955  1  0.02896255  0.59603758  0.90396282  1
  O  O2956  1  0.02896255  0.84603758  0.15396282  1
  O  O2957  1  0.02896255  0.84603758  0.40396282  1
  O  O2958  1  0.02896255  0.84603757  0.65396282  1
  O  O2959  1  0.02896255  0.84603757  0.90396282  1
  O  O2960  1  0.27896255  0.09603758  0.15396282  1
  O  O2961  1  0.27896255  0.09603757  0.40396282  1
  O  O2962  1  0.27896255  0.09603758  0.65396282  1
  O  O2963  1  0.27896255  0.09603758  0.90396282  1
  O  O2964  1  0.27896255  0.34603757  0.15396282  1
  O  O2965  1  0.27896255  0.34603758  0.40396282  1
  O  O2966  1  0.27896255  0.34603758  0.65396282  1
  O  O2967  1  0.27896255  0.34603757  0.90396282  1
  O  O2968  1  0.27896255  0.59603757  0.15396282  1
  O  O2969  1  0.27896255  0.59603757  0.40396282  1
  O  O2970  1  0.27896255  0.59603758  0.65396282  1
  O  O2971  1  0.27896255  0.59603758  0.90396282  1
  O  O2972  1  0.27896255  0.84603758  0.15396282  1
  O  O2973  1  0.27896255  0.84603758  0.40396282  1
  O  O2974  1  0.27896255  0.84603757  0.65396282  1
  O  O2975  1  0.27896255  0.84603757  0.90396282  1
  O  O2976  1  0.52896255  0.09603758  0.15396282  1
  O  O2977  1  0.52896255  0.09603758  0.40396282  1
  O  O2978  1  0.52896255  0.09603758  0.65396282  1
  O  O2979  1  0.52896255  0.09603758  0.90396282  1
  O  O2980  1  0.52896255  0.34603757  0.15396282  1
  O  O2981  1  0.52896255  0.34603758  0.40396282  1
  O  O2982  1  0.52896255  0.34603758  0.65396282  1
  O  O2983  1  0.52896255  0.34603757  0.90396282  1
  O  O2984  1  0.52896255  0.59603757  0.15396282  1
  O  O2985  1  0.52896255  0.59603757  0.40396282  1
  O  O2986  1  0.52896255  0.59603758  0.65396282  1
  O  O2987  1  0.52896255  0.59603758  0.90396282  1
  O  O2988  1  0.52896255  0.84603758  0.15396282  1
  O  O2989  1  0.52896255  0.84603758  0.40396282  1
  O  O2990  1  0.52896255  0.84603757  0.65396282  1
  O  O2991  1  0.52896255  0.84603757  0.90396282  1
  O  O2992  1  0.77896255  0.09603758  0.15396282  1
  O  O2993  1  0.77896255  0.09603758  0.40396282  1
  O  O2994  1  0.77896255  0.09603758  0.65396282  1
  O  O2995  1  0.77896255  0.09603758  0.90396282  1
  O  O2996  1  0.77896255  0.34603757  0.15396282  1
  O  O2997  1  0.77896255  0.34603758  0.40396282  1
  O  O2998  1  0.77896255  0.34603757  0.65396282  1
  O  O2999  1  0.77896255  0.34603757  0.90396282  1
  O  O3000  1  0.77896255  0.59603757  0.15396282  1
  O  O3001  1  0.77896255  0.59603757  0.40396282  1
  O  O3002  1  0.77896255  0.59603758  0.65396282  1
  O  O3003  1  0.77896255  0.59603758  0.90396282  1
  O  O3004  1  0.77896255  0.84603758  0.15396282  1
  O  O3005  1  0.77896255  0.84603757  0.40396282  1
  O  O3006  1  0.77896255  0.84603757  0.65396282  1
  O  O3007  1  0.77896255  0.84603757  0.90396282  1
  O  O3008  1  0.09145935  0.09146126  0.09146103  1
  O  O3009  1  0.09145935  0.09146126  0.34146104  1
  O  O3010  1  0.09145935  0.09146126  0.59146103  1
  O  O3011  1  0.09145935  0.09146126  0.84146104  1
  O  O3012  1  0.09145935  0.34146126  0.09146103  1
  O  O3013  1  0.09145935  0.34146126  0.34146103  1
  O  O3014  1  0.09145935  0.34146126  0.59146104  1
  O  O3015  1  0.09145935  0.34146126  0.84146103  1
  O  O3016  1  0.09145935  0.59146126  0.09146103  1
  O  O3017  1  0.09145935  0.59146126  0.34146103  1
  O  O3018  1  0.09145935  0.59146126  0.59146103  1
  O  O3019  1  0.09145935  0.59146126  0.84146103  1
  O  O3020  1  0.09145935  0.84146126  0.09146103  1
  O  O3021  1  0.09145935  0.84146126  0.34146104  1
  O  O3022  1  0.09145935  0.84146126  0.59146103  1
  O  O3023  1  0.09145935  0.84146126  0.84146103  1
  O  O3024  1  0.34145935  0.09146126  0.09146103  1
  O  O3025  1  0.34145935  0.09146126  0.34146104  1
  O  O3026  1  0.34145935  0.09146126  0.59146103  1
  O  O3027  1  0.34145935  0.09146126  0.84146103  1
  O  O3028  1  0.34145935  0.34146126  0.09146103  1
  O  O3029  1  0.34145935  0.34146126  0.34146103  1
  O  O3030  1  0.34145935  0.34146126  0.59146104  1
  O  O3031  1  0.34145935  0.34146126  0.84146103  1
  O  O3032  1  0.34145935  0.59146126  0.09146103  1
  O  O3033  1  0.34145935  0.59146126  0.34146103  1
  O  O3034  1  0.34145935  0.59146126  0.59146103  1
  O  O3035  1  0.34145935  0.59146126  0.84146103  1
  O  O3036  1  0.34145935  0.84146126  0.09146103  1
  O  O3037  1  0.34145935  0.84146126  0.34146103  1
  O  O3038  1  0.34145935  0.84146126  0.59146103  1
  O  O3039  1  0.34145935  0.84146126  0.84146103  1
  O  O3040  1  0.59145935  0.09146126  0.09146103  1
  O  O3041  1  0.59145935  0.09146126  0.34146104  1
  O  O3042  1  0.59145935  0.09146126  0.59146103  1
  O  O3043  1  0.59145935  0.09146126  0.84146103  1
  O  O3044  1  0.59145935  0.34146126  0.09146103  1
  O  O3045  1  0.59145935  0.34146126  0.34146103  1
  O  O3046  1  0.59145935  0.34146126  0.59146103  1
  O  O3047  1  0.59145935  0.34146126  0.84146103  1
  O  O3048  1  0.59145935  0.59146126  0.09146103  1
  O  O3049  1  0.59145935  0.59146126  0.34146104  1
  O  O3050  1  0.59145935  0.59146126  0.59146103  1
  O  O3051  1  0.59145935  0.59146126  0.84146104  1
  O  O3052  1  0.59145935  0.84146126  0.09146103  1
  O  O3053  1  0.59145935  0.84146126  0.34146103  1
  O  O3054  1  0.59145935  0.84146126  0.59146104  1
  O  O3055  1  0.59145935  0.84146126  0.84146103  1
  O  O3056  1  0.84145935  0.09146126  0.09146103  1
  O  O3057  1  0.84145935  0.09146126  0.34146103  1
  O  O3058  1  0.84145935  0.09146126  0.59146104  1
  O  O3059  1  0.84145935  0.09146126  0.84146103  1
  O  O3060  1  0.84145935  0.34146126  0.09146103  1
  O  O3061  1  0.84145935  0.34146126  0.34146103  1
  O  O3062  1  0.84145935  0.34146126  0.59146103  1
  O  O3063  1  0.84145935  0.34146126  0.84146103  1
  O  O3064  1  0.84145935  0.59146126  0.09146103  1
  O  O3065  1  0.84145935  0.59146126  0.34146104  1
  O  O3066  1  0.84145935  0.59146126  0.59146103  1
  O  O3067  1  0.84145935  0.59146126  0.84146103  1
  O  O3068  1  0.84145935  0.84146126  0.09146103  1
  O  O3069  1  0.84145935  0.84146126  0.34146103  1
  O  O3070  1  0.84145935  0.84146126  0.59146104  1
  O  O3071  1  0.84145935  0.84146126  0.84146103  1
  O  O3072  1  0.22333727  0.15023010  0.15653633  1
  O  O3073  1  0.22333728  0.15023010  0.40653633  1
  O  O3074  1  0.22333727  0.15023010  0.65653633  1
  O  O3075  1  0.22333728  0.15023010  0.90653633  1
  O  O3076  1  0.22333727  0.40023010  0.15653633  1
  O  O3077  1  0.22333727  0.40023010  0.40653633  1
  O  O3078  1  0.22333728  0.40023010  0.65653633  1
  O  O3079  1  0.22333728  0.40023010  0.90653633  1
  O  O3080  1  0.22333727  0.65023010  0.15653633  1
  O  O3081  1  0.22333728  0.65023010  0.40653633  1
  O  O3082  1  0.22333727  0.65023010  0.65653633  1
  O  O3083  1  0.22333728  0.65023010  0.90653633  1
  O  O3084  1  0.22333727  0.90023010  0.15653633  1
  O  O3085  1  0.22333728  0.90023010  0.40653633  1
  O  O3086  1  0.22333727  0.90023010  0.65653633  1
  O  O3087  1  0.22333727  0.90023010  0.90653633  1
  O  O3088  1  0.47333728  0.15023010  0.15653633  1
  O  O3089  1  0.47333728  0.15023010  0.40653633  1
  O  O3090  1  0.47333727  0.15023010  0.65653633  1
  O  O3091  1  0.47333728  0.15023010  0.90653633  1
  O  O3092  1  0.47333728  0.40023010  0.15653633  1
  O  O3093  1  0.47333728  0.40023010  0.40653633  1
  O  O3094  1  0.47333728  0.40023010  0.65653633  1
  O  O3095  1  0.47333728  0.40023010  0.90653633  1
  O  O3096  1  0.47333727  0.65023010  0.15653633  1
  O  O3097  1  0.47333728  0.65023010  0.40653633  1
  O  O3098  1  0.47333727  0.65023010  0.65653633  1
  O  O3099  1  0.47333727  0.65023010  0.90653633  1
  O  O3100  1  0.47333727  0.90023010  0.15653633  1
  O  O3101  1  0.47333728  0.90023010  0.40653633  1
  O  O3102  1  0.47333728  0.90023010  0.65653633  1
  O  O3103  1  0.47333727  0.90023010  0.90653633  1
  O  O3104  1  0.72333727  0.15023010  0.15653633  1
  O  O3105  1  0.72333727  0.15023010  0.40653633  1
  O  O3106  1  0.72333727  0.15023010  0.65653633  1
  O  O3107  1  0.72333727  0.15023010  0.90653633  1
  O  O3108  1  0.72333728  0.40023010  0.15653633  1
  O  O3109  1  0.72333727  0.40023010  0.40653633  1
  O  O3110  1  0.72333727  0.40023010  0.65653633  1
  O  O3111  1  0.72333728  0.40023010  0.90653633  1
  O  O3112  1  0.72333728  0.65023010  0.15653633  1
  O  O3113  1  0.72333727  0.65023010  0.40653633  1
  O  O3114  1  0.72333728  0.65023010  0.65653633  1
  O  O3115  1  0.72333728  0.65023010  0.90653633  1
  O  O3116  1  0.72333728  0.90023010  0.15653633  1
  O  O3117  1  0.72333727  0.90023010  0.40653633  1
  O  O3118  1  0.72333727  0.90023010  0.65653633  1
  O  O3119  1  0.72333728  0.90023010  0.90653633  1
  O  O3120  1  0.97333727  0.15023010  0.15653633  1
  O  O3121  1  0.97333727  0.15023010  0.40653633  1
  O  O3122  1  0.97333728  0.15023010  0.65653633  1
  O  O3123  1  0.97333727  0.15023010  0.90653633  1
  O  O3124  1  0.97333727  0.40023010  0.15653633  1
  O  O3125  1  0.97333728  0.40023010  0.40653633  1
  O  O3126  1  0.97333728  0.40023010  0.65653633  1
  O  O3127  1  0.97333727  0.40023010  0.90653633  1
  O  O3128  1  0.97333727  0.65023010  0.15653633  1
  O  O3129  1  0.97333728  0.65023010  0.40653633  1
  O  O3130  1  0.97333728  0.65023010  0.65653633  1
  O  O3131  1  0.97333727  0.65023010  0.90653633  1
  O  O3132  1  0.97333727  0.90023010  0.15653633  1
  O  O3133  1  0.97333728  0.90023010  0.40653633  1
  O  O3134  1  0.97333728  0.90023010  0.65653633  1
  O  O3135  1  0.97333727  0.90023010  0.90653633  1
  O  O3136  1  0.08772906  0.21416097  0.21903568  1
  O  O3137  1  0.08772906  0.21416097  0.46903568  1
  O  O3138  1  0.08772906  0.21416097  0.71903568  1
  O  O3139  1  0.08772906  0.21416097  0.96903568  1
  O  O3140  1  0.08772906  0.46416097  0.21903568  1
  O  O3141  1  0.08772906  0.46416097  0.46903568  1
  O  O3142  1  0.08772906  0.46416097  0.71903568  1
  O  O3143  1  0.08772906  0.46416097  0.96903568  1
  O  O3144  1  0.08772906  0.71416097  0.21903568  1
  O  O3145  1  0.08772906  0.71416097  0.46903568  1
  O  O3146  1  0.08772906  0.71416097  0.71903568  1
  O  O3147  1  0.08772906  0.71416097  0.96903568  1
  O  O3148  1  0.08772906  0.96416097  0.21903568  1
  O  O3149  1  0.08772906  0.96416097  0.46903568  1
  O  O3150  1  0.08772906  0.96416097  0.71903568  1
  O  O3151  1  0.08772906  0.96416097  0.96903568  1
  O  O3152  1  0.33772906  0.21416097  0.21903568  1
  O  O3153  1  0.33772906  0.21416097  0.46903568  1
  O  O3154  1  0.33772906  0.21416097  0.71903568  1
  O  O3155  1  0.33772906  0.21416097  0.96903568  1
  O  O3156  1  0.33772906  0.46416097  0.21903568  1
  O  O3157  1  0.33772906  0.46416097  0.46903568  1
  O  O3158  1  0.33772906  0.46416097  0.71903568  1
  O  O3159  1  0.33772906  0.46416097  0.96903568  1
  O  O3160  1  0.33772906  0.71416097  0.21903568  1
  O  O3161  1  0.33772906  0.71416097  0.46903568  1
  O  O3162  1  0.33772906  0.71416097  0.71903568  1
  O  O3163  1  0.33772906  0.71416097  0.96903568  1
  O  O3164  1  0.33772906  0.96416097  0.21903568  1
  O  O3165  1  0.33772906  0.96416097  0.46903568  1
  O  O3166  1  0.33772906  0.96416097  0.71903568  1
  O  O3167  1  0.33772906  0.96416097  0.96903568  1
  O  O3168  1  0.58772906  0.21416097  0.21903568  1
  O  O3169  1  0.58772906  0.21416097  0.46903568  1
  O  O3170  1  0.58772906  0.21416097  0.71903568  1
  O  O3171  1  0.58772906  0.21416097  0.96903568  1
  O  O3172  1  0.58772906  0.46416097  0.21903568  1
  O  O3173  1  0.58772906  0.46416097  0.46903568  1
  O  O3174  1  0.58772906  0.46416097  0.71903568  1
  O  O3175  1  0.58772906  0.46416097  0.96903568  1
  O  O3176  1  0.58772906  0.71416097  0.21903568  1
  O  O3177  1  0.58772906  0.71416097  0.46903568  1
  O  O3178  1  0.58772906  0.71416097  0.71903568  1
  O  O3179  1  0.58772906  0.71416097  0.96903568  1
  O  O3180  1  0.58772906  0.96416097  0.21903568  1
  O  O3181  1  0.58772906  0.96416097  0.46903568  1
  O  O3182  1  0.58772906  0.96416097  0.71903568  1
  O  O3183  1  0.58772906  0.96416097  0.96903568  1
  O  O3184  1  0.83772906  0.21416097  0.21903568  1
  O  O3185  1  0.83772906  0.21416097  0.46903568  1
  O  O3186  1  0.83772906  0.21416097  0.71903568  1
  O  O3187  1  0.83772906  0.21416097  0.96903568  1
  O  O3188  1  0.83772906  0.46416097  0.21903568  1
  O  O3189  1  0.83772906  0.46416097  0.46903568  1
  O  O3190  1  0.83772906  0.46416097  0.71903568  1
  O  O3191  1  0.83772906  0.46416097  0.96903568  1
  O  O3192  1  0.83772906  0.71416097  0.21903568  1
  O  O3193  1  0.83772906  0.71416097  0.46903568  1
  O  O3194  1  0.83772906  0.71416097  0.71903568  1
  O  O3195  1  0.83772906  0.71416097  0.96903568  1
  O  O3196  1  0.83772906  0.96416097  0.21903568  1
  O  O3197  1  0.83772906  0.96416097  0.46903568  1
  O  O3198  1  0.83772906  0.96416097  0.71903568  1
  O  O3199  1  0.83772906  0.96416097  0.96903568  1
  O  O3200  1  0.21273056  0.16083698  0.03096437  1
  O  O3201  1  0.21273057  0.16083698  0.28096437  1
  O  O3202  1  0.21273056  0.16083698  0.53096437  1
  O  O3203  1  0.21273057  0.16083698  0.78096437  1
  O  O3204  1  0.21273056  0.41083698  0.03096437  1
  O  O3205  1  0.21273056  0.41083698  0.28096437  1
  O  O3206  1  0.21273057  0.41083698  0.53096437  1
  O  O3207  1  0.21273057  0.41083698  0.78096437  1
  O  O3208  1  0.21273056  0.66083698  0.03096437  1
  O  O3209  1  0.21273057  0.66083698  0.28096437  1
  O  O3210  1  0.21273056  0.66083698  0.53096437  1
  O  O3211  1  0.21273057  0.66083698  0.78096437  1
  O  O3212  1  0.21273056  0.91083698  0.03096437  1
  O  O3213  1  0.21273057  0.91083698  0.28096437  1
  O  O3214  1  0.21273056  0.91083698  0.53096437  1
  O  O3215  1  0.21273056  0.91083698  0.78096437  1
  O  O3216  1  0.46273056  0.16083698  0.03096437  1
  O  O3217  1  0.46273057  0.16083698  0.28096437  1
  O  O3218  1  0.46273056  0.16083698  0.53096437  1
  O  O3219  1  0.46273056  0.16083698  0.78096437  1
  O  O3220  1  0.46273057  0.41083698  0.03096437  1
  O  O3221  1  0.46273057  0.41083698  0.28096437  1
  O  O3222  1  0.46273056  0.41083698  0.53096437  1
  O  O3223  1  0.46273056  0.41083698  0.78096437  1
  O  O3224  1  0.46273056  0.66083698  0.03096437  1
  O  O3225  1  0.46273056  0.66083698  0.28096437  1
  O  O3226  1  0.46273056  0.66083698  0.53096437  1
  O  O3227  1  0.46273056  0.66083698  0.78096437  1
  O  O3228  1  0.46273056  0.91083698  0.03096437  1
  O  O3229  1  0.46273056  0.91083698  0.28096437  1
  O  O3230  1  0.46273057  0.91083698  0.53096437  1
  O  O3231  1  0.46273056  0.91083698  0.78096437  1
  O  O3232  1  0.71273056  0.16083698  0.03096437  1
  O  O3233  1  0.71273056  0.16083698  0.28096437  1
  O  O3234  1  0.71273056  0.16083698  0.53096437  1
  O  O3235  1  0.71273056  0.16083698  0.78096437  1
  O  O3236  1  0.71273056  0.41083698  0.03096437  1
  O  O3237  1  0.71273056  0.41083698  0.28096437  1
  O  O3238  1  0.71273056  0.41083698  0.53096437  1
  O  O3239  1  0.71273056  0.41083698  0.78096437  1
  O  O3240  1  0.71273056  0.66083698  0.03096437  1
  O  O3241  1  0.71273056  0.66083698  0.28096437  1
  O  O3242  1  0.71273057  0.66083698  0.53096437  1
  O  O3243  1  0.71273056  0.66083698  0.78096437  1
  O  O3244  1  0.71273056  0.91083698  0.03096437  1
  O  O3245  1  0.71273057  0.91083698  0.28096437  1
  O  O3246  1  0.71273056  0.91083698  0.53096437  1
  O  O3247  1  0.71273056  0.91083698  0.78096437  1
  O  O3248  1  0.96273056  0.16083698  0.03096437  1
  O  O3249  1  0.96273056  0.16083698  0.28096437  1
  O  O3250  1  0.96273056  0.16083698  0.53096437  1
  O  O3251  1  0.96273056  0.16083698  0.78096437  1
  O  O3252  1  0.96273056  0.41083698  0.03096437  1
  O  O3253  1  0.96273056  0.41083698  0.28096437  1
  O  O3254  1  0.96273056  0.41083698  0.53096437  1
  O  O3255  1  0.96273056  0.41083698  0.78096437  1
  O  O3256  1  0.96273056  0.66083698  0.03096437  1
  O  O3257  1  0.96273056  0.66083698  0.28096437  1
  O  O3258  1  0.96273056  0.66083698  0.53096437  1
  O  O3259  1  0.96273056  0.66083698  0.78096437  1
  O  O3260  1  0.96273056  0.91083698  0.03096437  1
  O  O3261  1  0.96273056  0.91083698  0.28096437  1
  O  O3262  1  0.96273056  0.91083698  0.53096437  1
  O  O3263  1  0.96273056  0.91083698  0.78096437  1
  O  O3264  1  0.03583859  0.09403455  0.03727180  1
  O  O3265  1  0.03583859  0.09403455  0.28727179  1
  O  O3266  1  0.03583859  0.09403455  0.53727179  1
  O  O3267  1  0.03583859  0.09403455  0.78727179  1
  O  O3268  1  0.03583859  0.34403455  0.03727180  1
  O  O3269  1  0.03583859  0.34403455  0.28727179  1
  O  O3270  1  0.03583859  0.34403455  0.53727179  1
  O  O3271  1  0.03583859  0.34403455  0.78727179  1
  O  O3272  1  0.03583859  0.59403455  0.03727180  1
  O  O3273  1  0.03583859  0.59403454  0.28727179  1
  O  O3274  1  0.03583859  0.59403455  0.53727179  1
  O  O3275  1  0.03583859  0.59403455  0.78727179  1
  O  O3276  1  0.03583859  0.84403455  0.03727179  1
  O  O3277  1  0.03583859  0.84403455  0.28727180  1
  O  O3278  1  0.03583859  0.84403455  0.53727179  1
  O  O3279  1  0.03583859  0.84403455  0.78727179  1
  O  O3280  1  0.28583859  0.09403455  0.03727180  1
  O  O3281  1  0.28583859  0.09403455  0.28727179  1
  O  O3282  1  0.28583859  0.09403455  0.53727179  1
  O  O3283  1  0.28583859  0.09403455  0.78727179  1
  O  O3284  1  0.28583859  0.34403455  0.03727179  1
  O  O3285  1  0.28583859  0.34403455  0.28727179  1
  O  O3286  1  0.28583859  0.34403455  0.53727180  1
  O  O3287  1  0.28583859  0.34403455  0.78727179  1
  O  O3288  1  0.28583859  0.59403454  0.03727180  1
  O  O3289  1  0.28583859  0.59403454  0.28727179  1
  O  O3290  1  0.28583859  0.59403455  0.53727179  1
  O  O3291  1  0.28583859  0.59403455  0.78727179  1
  O  O3292  1  0.28583859  0.84403455  0.03727180  1
  O  O3293  1  0.28583859  0.84403455  0.28727179  1
  O  O3294  1  0.28583859  0.84403455  0.53727179  1
  O  O3295  1  0.28583859  0.84403455  0.78727179  1
  O  O3296  1  0.53583859  0.09403454  0.03727180  1
  O  O3297  1  0.53583859  0.09403455  0.28727180  1
  O  O3298  1  0.53583859  0.09403455  0.53727179  1
  O  O3299  1  0.53583859  0.09403455  0.78727179  1
  O  O3300  1  0.53583859  0.34403455  0.03727180  1
  O  O3301  1  0.53583859  0.34403455  0.28727179  1
  O  O3302  1  0.53583859  0.34403455  0.53727179  1
  O  O3303  1  0.53583859  0.34403455  0.78727179  1
  O  O3304  1  0.53583859  0.59403454  0.03727180  1
  O  O3305  1  0.53583859  0.59403454  0.28727179  1
  O  O3306  1  0.53583859  0.59403455  0.53727179  1
  O  O3307  1  0.53583859  0.59403455  0.78727179  1
  O  O3308  1  0.53583859  0.84403455  0.03727179  1
  O  O3309  1  0.53583859  0.84403455  0.28727179  1
  O  O3310  1  0.53583859  0.84403455  0.53727179  1
  O  O3311  1  0.53583859  0.84403455  0.78727179  1
  O  O3312  1  0.78583859  0.09403455  0.03727180  1
  O  O3313  1  0.78583859  0.09403455  0.28727179  1
  O  O3314  1  0.78583859  0.09403455  0.53727179  1
  O  O3315  1  0.78583859  0.09403455  0.78727179  1
  O  O3316  1  0.78583859  0.34403455  0.03727179  1
  O  O3317  1  0.78583859  0.34403455  0.28727180  1
  O  O3318  1  0.78583859  0.34403455  0.53727179  1
  O  O3319  1  0.78583859  0.34403455  0.78727179  1
  O  O3320  1  0.78583859  0.59403454  0.03727180  1
  O  O3321  1  0.78583859  0.59403454  0.28727179  1
  O  O3322  1  0.78583859  0.59403455  0.53727179  1
  O  O3323  1  0.78583859  0.59403455  0.78727179  1
  O  O3324  1  0.78583859  0.84403455  0.03727180  1
  O  O3325  1  0.78583859  0.84403455  0.28727179  1
  O  O3326  1  0.78583859  0.84403455  0.53727179  1
  O  O3327  1  0.78583859  0.84403455  0.78727179  1
  O  O3328  1  0.21416247  0.21903515  0.08773043  1
  O  O3329  1  0.21416247  0.21903515  0.33773043  1
  O  O3330  1  0.21416247  0.21903515  0.58773042  1
  O  O3331  1  0.21416247  0.21903515  0.83773043  1
  O  O3332  1  0.21416247  0.46903515  0.08773043  1
  O  O3333  1  0.21416247  0.46903515  0.33773042  1
  O  O3334  1  0.21416247  0.46903515  0.58773043  1
  O  O3335  1  0.21416247  0.46903515  0.83773042  1
  O  O3336  1  0.21416247  0.71903515  0.08773043  1
  O  O3337  1  0.21416247  0.71903515  0.33773042  1
  O  O3338  1  0.21416247  0.71903515  0.58773042  1
  O  O3339  1  0.21416247  0.71903515  0.83773042  1
  O  O3340  1  0.21416247  0.96903515  0.08773043  1
  O  O3341  1  0.21416247  0.96903515  0.33773043  1
  O  O3342  1  0.21416247  0.96903515  0.58773042  1
  O  O3343  1  0.21416247  0.96903515  0.83773042  1
  O  O3344  1  0.46416247  0.21903515  0.08773043  1
  O  O3345  1  0.46416247  0.21903515  0.33773043  1
  O  O3346  1  0.46416247  0.21903515  0.58773042  1
  O  O3347  1  0.46416247  0.21903515  0.83773042  1
  O  O3348  1  0.46416247  0.46903515  0.08773043  1
  O  O3349  1  0.46416247  0.46903515  0.33773043  1
  O  O3350  1  0.46416247  0.46903515  0.58773043  1
  O  O3351  1  0.46416247  0.46903515  0.83773042  1
  O  O3352  1  0.46416247  0.71903515  0.08773043  1
  O  O3353  1  0.46416247  0.71903515  0.33773042  1
  O  O3354  1  0.46416247  0.71903515  0.58773042  1
  O  O3355  1  0.46416247  0.71903515  0.83773042  1
  O  O3356  1  0.46416247  0.96903515  0.08773043  1
  O  O3357  1  0.46416247  0.96903515  0.33773042  1
  O  O3358  1  0.46416247  0.96903515  0.58773042  1
  O  O3359  1  0.46416247  0.96903515  0.83773042  1
  O  O3360  1  0.71416247  0.21903515  0.08773043  1
  O  O3361  1  0.71416247  0.21903515  0.33773043  1
  O  O3362  1  0.71416247  0.21903515  0.58773042  1
  O  O3363  1  0.71416247  0.21903515  0.83773042  1
  O  O3364  1  0.71416247  0.46903515  0.08773043  1
  O  O3365  1  0.71416247  0.46903515  0.33773043  1
  O  O3366  1  0.71416247  0.46903515  0.58773042  1
  O  O3367  1  0.71416247  0.46903515  0.83773042  1
  O  O3368  1  0.71416247  0.71903515  0.08773043  1
  O  O3369  1  0.71416247  0.71903515  0.33773043  1
  O  O3370  1  0.71416247  0.71903515  0.58773042  1
  O  O3371  1  0.71416247  0.71903515  0.83773043  1
  O  O3372  1  0.71416247  0.96903515  0.08773043  1
  O  O3373  1  0.71416247  0.96903515  0.33773042  1
  O  O3374  1  0.71416247  0.96903515  0.58773043  1
  O  O3375  1  0.71416247  0.96903515  0.83773042  1
  O  O3376  1  0.96416247  0.21903515  0.08773043  1
  O  O3377  1  0.96416247  0.21903515  0.33773042  1
  O  O3378  1  0.96416247  0.21903515  0.58773042  1
  O  O3379  1  0.96416247  0.21903515  0.83773042  1
  O  O3380  1  0.96416247  0.46903515  0.08773043  1
  O  O3381  1  0.96416247  0.46903515  0.33773043  1
  O  O3382  1  0.96416247  0.46903515  0.58773042  1
  O  O3383  1  0.96416247  0.46903515  0.83773042  1
  O  O3384  1  0.96416247  0.71903515  0.08773043  1
  O  O3385  1  0.96416247  0.71903515  0.33773043  1
  O  O3386  1  0.96416247  0.71903515  0.58773042  1
  O  O3387  1  0.96416247  0.71903515  0.83773042  1
  O  O3388  1  0.96416247  0.96903515  0.08773043  1
  O  O3389  1  0.96416247  0.96903515  0.33773042  1
  O  O3390  1  0.96416247  0.96903515  0.58773043  1
  O  O3391  1  0.96416247  0.96903515  0.83773042  1
  O  O3392  1  0.03096430  0.21272808  0.16083915  1
  O  O3393  1  0.03096430  0.21272808  0.41083915  1
  O  O3394  1  0.03096430  0.21272808  0.66083914  1
  O  O3395  1  0.03096430  0.21272808  0.91083915  1
  O  O3396  1  0.03096430  0.46272808  0.16083914  1
  O  O3397  1  0.03096430  0.46272808  0.41083914  1
  O  O3398  1  0.03096430  0.46272808  0.66083915  1
  O  O3399  1  0.03096430  0.46272808  0.91083914  1
  O  O3400  1  0.03096430  0.71272808  0.16083915  1
  O  O3401  1  0.03096430  0.71272808  0.41083914  1
  O  O3402  1  0.03096430  0.71272808  0.66083914  1
  O  O3403  1  0.03096430  0.71272808  0.91083914  1
  O  O3404  1  0.03096430  0.96272808  0.16083914  1
  O  O3405  1  0.03096430  0.96272808  0.41083915  1
  O  O3406  1  0.03096430  0.96272808  0.66083914  1
  O  O3407  1  0.03096430  0.96272808  0.91083914  1
  O  O3408  1  0.28096430  0.21272808  0.16083915  1
  O  O3409  1  0.28096430  0.21272808  0.41083915  1
  O  O3410  1  0.28096430  0.21272808  0.66083914  1
  O  O3411  1  0.28096430  0.21272808  0.91083914  1
  O  O3412  1  0.28096430  0.46272808  0.16083915  1
  O  O3413  1  0.28096430  0.46272808  0.41083915  1
  O  O3414  1  0.28096430  0.46272808  0.66083915  1
  O  O3415  1  0.28096430  0.46272808  0.91083914  1
  O  O3416  1  0.28096430  0.71272808  0.16083915  1
  O  O3417  1  0.28096430  0.71272808  0.41083914  1
  O  O3418  1  0.28096430  0.71272808  0.66083914  1
  O  O3419  1  0.28096430  0.71272808  0.91083914  1
  O  O3420  1  0.28096430  0.96272808  0.16083915  1
  O  O3421  1  0.28096430  0.96272808  0.41083914  1
  O  O3422  1  0.28096430  0.96272808  0.66083914  1
  O  O3423  1  0.28096430  0.96272808  0.91083914  1
  O  O3424  1  0.53096430  0.21272808  0.16083914  1
  O  O3425  1  0.53096430  0.21272808  0.41083915  1
  O  O3426  1  0.53096430  0.21272808  0.66083914  1
  O  O3427  1  0.53096430  0.21272808  0.91083914  1
  O  O3428  1  0.53096430  0.46272808  0.16083915  1
  O  O3429  1  0.53096430  0.46272808  0.41083915  1
  O  O3430  1  0.53096430  0.46272808  0.66083914  1
  O  O3431  1  0.53096430  0.46272808  0.91083914  1
  O  O3432  1  0.53096430  0.71272808  0.16083914  1
  O  O3433  1  0.53096430  0.71272808  0.41083915  1
  O  O3434  1  0.53096430  0.71272808  0.66083914  1
  O  O3435  1  0.53096430  0.71272808  0.91083915  1
  O  O3436  1  0.53096430  0.96272808  0.16083915  1
  O  O3437  1  0.53096430  0.96272808  0.41083914  1
  O  O3438  1  0.53096430  0.96272808  0.66083915  1
  O  O3439  1  0.53096430  0.96272808  0.91083914  1
  O  O3440  1  0.78096430  0.21272808  0.16083915  1
  O  O3441  1  0.78096430  0.21272808  0.41083914  1
  O  O3442  1  0.78096430  0.21272808  0.66083914  1
  O  O3443  1  0.78096430  0.21272808  0.91083914  1
  O  O3444  1  0.78096430  0.46272808  0.16083914  1
  O  O3445  1  0.78096430  0.46272808  0.41083915  1
  O  O3446  1  0.78096430  0.46272808  0.66083914  1
  O  O3447  1  0.78096430  0.46272808  0.91083914  1
  O  O3448  1  0.78096430  0.71272808  0.16083915  1
  O  O3449  1  0.78096430  0.71272808  0.41083915  1
  O  O3450  1  0.78096430  0.71272808  0.66083914  1
  O  O3451  1  0.78096430  0.71272808  0.91083914  1
  O  O3452  1  0.78096430  0.96272808  0.16083914  1
  O  O3453  1  0.78096430  0.96272808  0.41083915  1
  O  O3454  1  0.78096430  0.96272808  0.66083915  1
  O  O3455  1  0.78096430  0.96272808  0.91083914  1
  O  O3456  1  0.09403496  0.03727104  0.03583905  1
  O  O3457  1  0.09403496  0.03727104  0.28583905  1
  O  O3458  1  0.09403496  0.03727104  0.53583905  1
  O  O3459  1  0.09403496  0.03727104  0.78583905  1
  O  O3460  1  0.09403496  0.28727104  0.03583905  1
  O  O3461  1  0.09403496  0.28727104  0.28583905  1
  O  O3462  1  0.09403496  0.28727104  0.53583905  1
  O  O3463  1  0.09403496  0.28727104  0.78583905  1
  O  O3464  1  0.09403496  0.53727104  0.03583905  1
  O  O3465  1  0.09403496  0.53727104  0.28583905  1
  O  O3466  1  0.09403496  0.53727104  0.53583905  1
  O  O3467  1  0.09403496  0.53727104  0.78583905  1
  O  O3468  1  0.09403496  0.78727104  0.03583905  1
  O  O3469  1  0.09403496  0.78727104  0.28583905  1
  O  O3470  1  0.09403496  0.78727104  0.53583905  1
  O  O3471  1  0.09403496  0.78727104  0.78583905  1
  O  O3472  1  0.34403496  0.03727104  0.03583905  1
  O  O3473  1  0.34403496  0.03727104  0.28583905  1
  O  O3474  1  0.34403496  0.03727104  0.53583905  1
  O  O3475  1  0.34403496  0.03727104  0.78583905  1
  O  O3476  1  0.34403496  0.28727104  0.03583905  1
  O  O3477  1  0.34403496  0.28727104  0.28583905  1
  O  O3478  1  0.34403496  0.28727104  0.53583905  1
  O  O3479  1  0.34403496  0.28727104  0.78583905  1
  O  O3480  1  0.34403496  0.53727104  0.03583905  1
  O  O3481  1  0.34403496  0.53727104  0.28583905  1
  O  O3482  1  0.34403496  0.53727104  0.53583905  1
  O  O3483  1  0.34403496  0.53727104  0.78583905  1
  O  O3484  1  0.34403496  0.78727104  0.03583905  1
  O  O3485  1  0.34403496  0.78727104  0.28583905  1
  O  O3486  1  0.34403496  0.78727104  0.53583905  1
  O  O3487  1  0.34403496  0.78727104  0.78583905  1
  O  O3488  1  0.59403496  0.03727104  0.03583905  1
  O  O3489  1  0.59403496  0.03727104  0.28583905  1
  O  O3490  1  0.59403496  0.03727104  0.53583905  1
  O  O3491  1  0.59403496  0.03727104  0.78583905  1
  O  O3492  1  0.59403496  0.28727104  0.03583905  1
  O  O3493  1  0.59403496  0.28727104  0.28583905  1
  O  O3494  1  0.59403496  0.28727104  0.53583905  1
  O  O3495  1  0.59403496  0.28727104  0.78583905  1
  O  O3496  1  0.59403496  0.53727104  0.03583905  1
  O  O3497  1  0.59403496  0.53727104  0.28583905  1
  O  O3498  1  0.59403496  0.53727104  0.53583905  1
  O  O3499  1  0.59403496  0.53727104  0.78583905  1
  O  O3500  1  0.59403496  0.78727104  0.03583905  1
  O  O3501  1  0.59403496  0.78727104  0.28583905  1
  O  O3502  1  0.59403496  0.78727104  0.53583905  1
  O  O3503  1  0.59403496  0.78727104  0.78583905  1
  O  O3504  1  0.84403496  0.03727104  0.03583905  1
  O  O3505  1  0.84403496  0.03727104  0.28583905  1
  O  O3506  1  0.84403496  0.03727104  0.53583905  1
  O  O3507  1  0.84403496  0.03727104  0.78583905  1
  O  O3508  1  0.84403496  0.28727104  0.03583905  1
  O  O3509  1  0.84403496  0.28727104  0.28583905  1
  O  O3510  1  0.84403496  0.28727104  0.53583905  1
  O  O3511  1  0.84403496  0.28727104  0.78583905  1
  O  O3512  1  0.84403496  0.53727104  0.03583905  1
  O  O3513  1  0.84403496  0.53727104  0.28583905  1
  O  O3514  1  0.84403496  0.53727104  0.53583905  1
  O  O3515  1  0.84403496  0.53727104  0.78583905  1
  O  O3516  1  0.84403496  0.78727104  0.03583905  1
  O  O3517  1  0.84403496  0.78727104  0.28583905  1
  O  O3518  1  0.84403496  0.78727104  0.53583905  1
  O  O3519  1  0.84403496  0.78727104  0.78583905  1
  O  O3520  1  0.15023054  0.15653422  0.22333913  1
  O  O3521  1  0.15023053  0.15653422  0.47333913  1
  O  O3522  1  0.15023054  0.15653422  0.72333913  1
  O  O3523  1  0.15023053  0.15653422  0.97333913  1
  O  O3524  1  0.15023053  0.40653422  0.22333913  1
  O  O3525  1  0.15023053  0.40653422  0.47333913  1
  O  O3526  1  0.15023054  0.40653422  0.72333913  1
  O  O3527  1  0.15023054  0.40653422  0.97333913  1
  O  O3528  1  0.15023053  0.65653422  0.22333913  1
  O  O3529  1  0.15023053  0.65653422  0.47333913  1
  O  O3530  1  0.15023053  0.65653422  0.72333913  1
  O  O3531  1  0.15023053  0.65653422  0.97333913  1
  O  O3532  1  0.15023053  0.90653422  0.22333913  1
  O  O3533  1  0.15023053  0.90653422  0.47333913  1
  O  O3534  1  0.15023054  0.90653422  0.72333913  1
  O  O3535  1  0.15023053  0.90653422  0.97333913  1
  O  O3536  1  0.40023053  0.15653422  0.22333913  1
  O  O3537  1  0.40023053  0.15653422  0.47333913  1
  O  O3538  1  0.40023054  0.15653422  0.72333913  1
  O  O3539  1  0.40023053  0.15653422  0.97333913  1
  O  O3540  1  0.40023054  0.40653422  0.22333913  1
  O  O3541  1  0.40023053  0.40653422  0.47333913  1
  O  O3542  1  0.40023054  0.40653422  0.72333913  1
  O  O3543  1  0.40023053  0.40653422  0.97333913  1
  O  O3544  1  0.40023053  0.65653422  0.22333913  1
  O  O3545  1  0.40023053  0.65653422  0.47333913  1
  O  O3546  1  0.40023053  0.65653422  0.72333913  1
  O  O3547  1  0.40023053  0.65653422  0.97333913  1
  O  O3548  1  0.40023053  0.90653422  0.22333913  1
  O  O3549  1  0.40023054  0.90653422  0.47333913  1
  O  O3550  1  0.40023053  0.90653422  0.72333913  1
  O  O3551  1  0.40023053  0.90653422  0.97333913  1
  O  O3552  1  0.65023054  0.15653422  0.22333913  1
  O  O3553  1  0.65023053  0.15653422  0.47333913  1
  O  O3554  1  0.65023053  0.15653422  0.72333913  1
  O  O3555  1  0.65023053  0.15653422  0.97333913  1
  O  O3556  1  0.65023054  0.40653422  0.22333913  1
  O  O3557  1  0.65023053  0.40653422  0.47333913  1
  O  O3558  1  0.65023053  0.40653422  0.72333913  1
  O  O3559  1  0.65023053  0.40653422  0.97333913  1
  O  O3560  1  0.65023054  0.65653422  0.22333913  1
  O  O3561  1  0.65023053  0.65653422  0.47333913  1
  O  O3562  1  0.65023054  0.65653422  0.72333913  1
  O  O3563  1  0.65023054  0.65653422  0.97333913  1
  O  O3564  1  0.65023054  0.90653422  0.22333913  1
  O  O3565  1  0.65023053  0.90653422  0.47333913  1
  O  O3566  1  0.65023054  0.90653422  0.72333913  1
  O  O3567  1  0.65023054  0.90653422  0.97333913  1
  O  O3568  1  0.90023053  0.15653422  0.22333913  1
  O  O3569  1  0.90023053  0.15653422  0.47333913  1
  O  O3570  1  0.90023053  0.15653422  0.72333913  1
  O  O3571  1  0.90023053  0.15653422  0.97333913  1
  O  O3572  1  0.90023054  0.40653422  0.22333913  1
  O  O3573  1  0.90023053  0.40653422  0.47333913  1
  O  O3574  1  0.90023053  0.40653422  0.72333913  1
  O  O3575  1  0.90023053  0.40653422  0.97333913  1
  O  O3576  1  0.90023054  0.65653422  0.22333913  1
  O  O3577  1  0.90023053  0.65653422  0.47333913  1
  O  O3578  1  0.90023053  0.65653422  0.72333913  1
  O  O3579  1  0.90023053  0.65653422  0.97333913  1
  O  O3580  1  0.90023054  0.90653422  0.22333913  1
  O  O3581  1  0.90023053  0.90653422  0.47333913  1
  O  O3582  1  0.90023053  0.90653422  0.72333913  1
  O  O3583  1  0.90023054  0.90653422  0.97333913  1
