# generated using pymatgen
data_Li2U(MoO5)2
_symmetry_space_group_name_H-M   'P 1'
_cell_length_a   33.05144419
_cell_length_b   35.61051852
_cell_length_c   50.31472460
_cell_angle_alpha   108.21181744
_cell_angle_beta   100.09514314
_cell_angle_gamma   104.70585256
_symmetry_Int_Tables_number   1
_chemical_formula_structural   Li2U(MoO5)2
_chemical_formula_sum   'Li432 U216 Mo432 O2160'
_cell_volume   52279.13100468
_cell_formula_units_Z   216
loop_
 _symmetry_equiv_pos_site_id
 _symmetry_equiv_pos_as_xyz
  1  'x, y, z'
loop_
 _atom_site_type_symbol
 _atom_site_label
 _atom_site_symmetry_multiplicity
 _atom_site_fract_x
 _atom_site_fract_y
 _atom_site_fract_z
 _atom_site_occupancy
  Li  Li0  1  0.07961017  0.03592383  0.07075267  1
  Li  Li1  1  0.07961017  0.03592383  0.23741933  1
  Li  Li2  1  0.07961017  0.03592383  0.40408600  1
  Li  Li3  1  0.07961017  0.03592383  0.57075267  1
  Li  Li4  1  0.07961017  0.03592383  0.73741933  1
  Li  Li5  1  0.07961017  0.03592383  0.90408600  1
  Li  Li6  1  0.07961017  0.20259050  0.07075267  1
  Li  Li7  1  0.07961017  0.20259050  0.23741933  1
  Li  Li8  1  0.07961017  0.20259050  0.40408600  1
  Li  Li9  1  0.07961017  0.20259050  0.57075267  1
  Li  Li10  1  0.07961017  0.20259050  0.73741933  1
  Li  Li11  1  0.07961017  0.20259050  0.90408600  1
  Li  Li12  1  0.07961017  0.36925717  0.07075267  1
  Li  Li13  1  0.07961017  0.36925717  0.23741933  1
  Li  Li14  1  0.07961017  0.36925717  0.40408600  1
  Li  Li15  1  0.07961017  0.36925717  0.57075267  1
  Li  Li16  1  0.07961017  0.36925717  0.73741933  1
  Li  Li17  1  0.07961017  0.36925717  0.90408600  1
  Li  Li18  1  0.07961017  0.53592383  0.07075267  1
  Li  Li19  1  0.07961017  0.53592383  0.23741933  1
  Li  Li20  1  0.07961017  0.53592383  0.40408600  1
  Li  Li21  1  0.07961017  0.53592383  0.57075267  1
  Li  Li22  1  0.07961017  0.53592383  0.73741933  1
  Li  Li23  1  0.07961017  0.53592383  0.90408600  1
  Li  Li24  1  0.07961017  0.70259050  0.07075267  1
  Li  Li25  1  0.07961017  0.70259050  0.23741933  1
  Li  Li26  1  0.07961017  0.70259050  0.40408600  1
  Li  Li27  1  0.07961017  0.70259050  0.57075267  1
  Li  Li28  1  0.07961017  0.70259050  0.73741933  1
  Li  Li29  1  0.07961017  0.70259050  0.90408600  1
  Li  Li30  1  0.07961017  0.86925717  0.07075267  1
  Li  Li31  1  0.07961017  0.86925717  0.23741933  1
  Li  Li32  1  0.07961017  0.86925717  0.40408600  1
  Li  Li33  1  0.07961017  0.86925717  0.57075267  1
  Li  Li34  1  0.07961017  0.86925717  0.73741933  1
  Li  Li35  1  0.07961017  0.86925717  0.90408600  1
  Li  Li36  1  0.24627683  0.03592383  0.07075267  1
  Li  Li37  1  0.24627683  0.03592383  0.23741933  1
  Li  Li38  1  0.24627683  0.03592383  0.40408600  1
  Li  Li39  1  0.24627683  0.03592383  0.57075267  1
  Li  Li40  1  0.24627683  0.03592383  0.73741933  1
  Li  Li41  1  0.24627683  0.03592383  0.90408600  1
  Li  Li42  1  0.24627683  0.20259050  0.07075267  1
  Li  Li43  1  0.24627683  0.20259050  0.23741933  1
  Li  Li44  1  0.24627683  0.20259050  0.40408600  1
  Li  Li45  1  0.24627683  0.20259050  0.57075267  1
  Li  Li46  1  0.24627683  0.20259050  0.73741933  1
  Li  Li47  1  0.24627683  0.20259050  0.90408600  1
  Li  Li48  1  0.24627683  0.36925717  0.07075267  1
  Li  Li49  1  0.24627683  0.36925717  0.23741933  1
  Li  Li50  1  0.24627683  0.36925717  0.40408600  1
  Li  Li51  1  0.24627683  0.36925717  0.57075267  1
  Li  Li52  1  0.24627683  0.36925717  0.73741933  1
  Li  Li53  1  0.24627683  0.36925717  0.90408600  1
  Li  Li54  1  0.24627683  0.53592383  0.07075267  1
  Li  Li55  1  0.24627683  0.53592383  0.23741933  1
  Li  Li56  1  0.24627683  0.53592383  0.40408600  1
  Li  Li57  1  0.24627683  0.53592383  0.57075267  1
  Li  Li58  1  0.24627683  0.53592383  0.73741933  1
  Li  Li59  1  0.24627683  0.53592383  0.90408600  1
  Li  Li60  1  0.24627683  0.70259050  0.07075267  1
  Li  Li61  1  0.24627683  0.70259050  0.23741933  1
  Li  Li62  1  0.24627683  0.70259050  0.40408600  1
  Li  Li63  1  0.24627683  0.70259050  0.57075267  1
  Li  Li64  1  0.24627683  0.70259050  0.73741933  1
  Li  Li65  1  0.24627683  0.70259050  0.90408600  1
  Li  Li66  1  0.24627683  0.86925717  0.07075267  1
  Li  Li67  1  0.24627683  0.86925717  0.23741933  1
  Li  Li68  1  0.24627683  0.86925717  0.40408600  1
  Li  Li69  1  0.24627683  0.86925717  0.57075267  1
  Li  Li70  1  0.24627683  0.86925717  0.73741933  1
  Li  Li71  1  0.24627683  0.86925717  0.90408600  1
  Li  Li72  1  0.41294350  0.03592383  0.07075267  1
  Li  Li73  1  0.41294350  0.03592383  0.23741933  1
  Li  Li74  1  0.41294350  0.03592383  0.40408600  1
  Li  Li75  1  0.41294350  0.03592383  0.57075267  1
  Li  Li76  1  0.41294350  0.03592383  0.73741933  1
  Li  Li77  1  0.41294350  0.03592383  0.90408600  1
  Li  Li78  1  0.41294350  0.20259050  0.07075267  1
  Li  Li79  1  0.41294350  0.20259050  0.23741933  1
  Li  Li80  1  0.41294350  0.20259050  0.40408600  1
  Li  Li81  1  0.41294350  0.20259050  0.57075267  1
  Li  Li82  1  0.41294350  0.20259050  0.73741933  1
  Li  Li83  1  0.41294350  0.20259050  0.90408600  1
  Li  Li84  1  0.41294350  0.36925717  0.07075267  1
  Li  Li85  1  0.41294350  0.36925717  0.23741933  1
  Li  Li86  1  0.41294350  0.36925717  0.40408600  1
  Li  Li87  1  0.41294350  0.36925717  0.57075267  1
  Li  Li88  1  0.41294350  0.36925717  0.73741933  1
  Li  Li89  1  0.41294350  0.36925717  0.90408600  1
  Li  Li90  1  0.41294350  0.53592383  0.07075267  1
  Li  Li91  1  0.41294350  0.53592383  0.23741933  1
  Li  Li92  1  0.41294350  0.53592383  0.40408600  1
  Li  Li93  1  0.41294350  0.53592383  0.57075267  1
  Li  Li94  1  0.41294350  0.53592383  0.73741933  1
  Li  Li95  1  0.41294350  0.53592383  0.90408600  1
  Li  Li96  1  0.41294350  0.70259050  0.07075267  1
  Li  Li97  1  0.41294350  0.70259050  0.23741933  1
  Li  Li98  1  0.41294350  0.70259050  0.40408600  1
  Li  Li99  1  0.41294350  0.70259050  0.57075267  1
  Li  Li100  1  0.41294350  0.70259050  0.73741933  1
  Li  Li101  1  0.41294350  0.70259050  0.90408600  1
  Li  Li102  1  0.41294350  0.86925717  0.07075267  1
  Li  Li103  1  0.41294350  0.86925717  0.23741933  1
  Li  Li104  1  0.41294350  0.86925717  0.40408600  1
  Li  Li105  1  0.41294350  0.86925717  0.57075267  1
  Li  Li106  1  0.41294350  0.86925717  0.73741933  1
  Li  Li107  1  0.41294350  0.86925717  0.90408600  1
  Li  Li108  1  0.57961017  0.03592383  0.07075267  1
  Li  Li109  1  0.57961017  0.03592383  0.23741933  1
  Li  Li110  1  0.57961017  0.03592383  0.40408600  1
  Li  Li111  1  0.57961017  0.03592383  0.57075267  1
  Li  Li112  1  0.57961017  0.03592383  0.73741933  1
  Li  Li113  1  0.57961017  0.03592383  0.90408600  1
  Li  Li114  1  0.57961017  0.20259050  0.07075267  1
  Li  Li115  1  0.57961017  0.20259050  0.23741933  1
  Li  Li116  1  0.57961017  0.20259050  0.40408600  1
  Li  Li117  1  0.57961017  0.20259050  0.57075267  1
  Li  Li118  1  0.57961017  0.20259050  0.73741933  1
  Li  Li119  1  0.57961017  0.20259050  0.90408600  1
  Li  Li120  1  0.57961017  0.36925717  0.07075267  1
  Li  Li121  1  0.57961017  0.36925717  0.23741933  1
  Li  Li122  1  0.57961017  0.36925717  0.40408600  1
  Li  Li123  1  0.57961017  0.36925717  0.57075267  1
  Li  Li124  1  0.57961017  0.36925717  0.73741933  1
  Li  Li125  1  0.57961017  0.36925717  0.90408600  1
  Li  Li126  1  0.57961017  0.53592383  0.07075267  1
  Li  Li127  1  0.57961017  0.53592383  0.23741933  1
  Li  Li128  1  0.57961017  0.53592383  0.40408600  1
  Li  Li129  1  0.57961017  0.53592383  0.57075267  1
  Li  Li130  1  0.57961017  0.53592383  0.73741933  1
  Li  Li131  1  0.57961017  0.53592383  0.90408600  1
  Li  Li132  1  0.57961017  0.70259050  0.07075267  1
  Li  Li133  1  0.57961017  0.70259050  0.23741933  1
  Li  Li134  1  0.57961017  0.70259050  0.40408600  1
  Li  Li135  1  0.57961017  0.70259050  0.57075267  1
  Li  Li136  1  0.57961017  0.70259050  0.73741933  1
  Li  Li137  1  0.57961017  0.70259050  0.90408600  1
  Li  Li138  1  0.57961017  0.86925717  0.07075267  1
  Li  Li139  1  0.57961017  0.86925717  0.23741933  1
  Li  Li140  1  0.57961017  0.86925717  0.40408600  1
  Li  Li141  1  0.57961017  0.86925717  0.57075267  1
  Li  Li142  1  0.57961017  0.86925717  0.73741933  1
  Li  Li143  1  0.57961017  0.86925717  0.90408600  1
  Li  Li144  1  0.74627683  0.03592383  0.07075267  1
  Li  Li145  1  0.74627683  0.03592383  0.23741933  1
  Li  Li146  1  0.74627683  0.03592383  0.40408600  1
  Li  Li147  1  0.74627683  0.03592383  0.57075267  1
  Li  Li148  1  0.74627683  0.03592383  0.73741933  1
  Li  Li149  1  0.74627683  0.03592383  0.90408600  1
  Li  Li150  1  0.74627683  0.20259050  0.07075267  1
  Li  Li151  1  0.74627683  0.20259050  0.23741933  1
  Li  Li152  1  0.74627683  0.20259050  0.40408600  1
  Li  Li153  1  0.74627683  0.20259050  0.57075267  1
  Li  Li154  1  0.74627683  0.20259050  0.73741933  1
  Li  Li155  1  0.74627683  0.20259050  0.90408600  1
  Li  Li156  1  0.74627683  0.36925717  0.07075267  1
  Li  Li157  1  0.74627683  0.36925717  0.23741933  1
  Li  Li158  1  0.74627683  0.36925717  0.40408600  1
  Li  Li159  1  0.74627683  0.36925717  0.57075267  1
  Li  Li160  1  0.74627683  0.36925717  0.73741933  1
  Li  Li161  1  0.74627683  0.36925717  0.90408600  1
  Li  Li162  1  0.74627683  0.53592383  0.07075267  1
  Li  Li163  1  0.74627683  0.53592383  0.23741933  1
  Li  Li164  1  0.74627683  0.53592383  0.40408600  1
  Li  Li165  1  0.74627683  0.53592383  0.57075267  1
  Li  Li166  1  0.74627683  0.53592383  0.73741933  1
  Li  Li167  1  0.74627683  0.53592383  0.90408600  1
  Li  Li168  1  0.74627683  0.70259050  0.07075267  1
  Li  Li169  1  0.74627683  0.70259050  0.23741933  1
  Li  Li170  1  0.74627683  0.70259050  0.40408600  1
  Li  Li171  1  0.74627683  0.70259050  0.57075267  1
  Li  Li172  1  0.74627683  0.70259050  0.73741933  1
  Li  Li173  1  0.74627683  0.70259050  0.90408600  1
  Li  Li174  1  0.74627683  0.86925717  0.07075267  1
  Li  Li175  1  0.74627683  0.86925717  0.23741933  1
  Li  Li176  1  0.74627683  0.86925717  0.40408600  1
  Li  Li177  1  0.74627683  0.86925717  0.57075267  1
  Li  Li178  1  0.74627683  0.86925717  0.73741933  1
  Li  Li179  1  0.74627683  0.86925717  0.90408600  1
  Li  Li180  1  0.91294350  0.03592383  0.07075267  1
  Li  Li181  1  0.91294350  0.03592383  0.23741933  1
  Li  Li182  1  0.91294350  0.03592383  0.40408600  1
  Li  Li183  1  0.91294350  0.03592383  0.57075267  1
  Li  Li184  1  0.91294350  0.03592383  0.73741933  1
  Li  Li185  1  0.91294350  0.03592383  0.90408600  1
  Li  Li186  1  0.91294350  0.20259050  0.07075267  1
  Li  Li187  1  0.91294350  0.20259050  0.23741933  1
  Li  Li188  1  0.91294350  0.20259050  0.40408600  1
  Li  Li189  1  0.91294350  0.20259050  0.57075267  1
  Li  Li190  1  0.91294350  0.20259050  0.73741933  1
  Li  Li191  1  0.91294350  0.20259050  0.90408600  1
  Li  Li192  1  0.91294350  0.36925717  0.07075267  1
  Li  Li193  1  0.91294350  0.36925717  0.23741933  1
  Li  Li194  1  0.91294350  0.36925717  0.40408600  1
  Li  Li195  1  0.91294350  0.36925717  0.57075267  1
  Li  Li196  1  0.91294350  0.36925717  0.73741933  1
  Li  Li197  1  0.91294350  0.36925717  0.90408600  1
  Li  Li198  1  0.91294350  0.53592383  0.07075267  1
  Li  Li199  1  0.91294350  0.53592383  0.23741933  1
  Li  Li200  1  0.91294350  0.53592383  0.40408600  1
  Li  Li201  1  0.91294350  0.53592383  0.57075267  1
  Li  Li202  1  0.91294350  0.53592383  0.73741933  1
  Li  Li203  1  0.91294350  0.53592383  0.90408600  1
  Li  Li204  1  0.91294350  0.70259050  0.07075267  1
  Li  Li205  1  0.91294350  0.70259050  0.23741933  1
  Li  Li206  1  0.91294350  0.70259050  0.40408600  1
  Li  Li207  1  0.91294350  0.70259050  0.57075267  1
  Li  Li208  1  0.91294350  0.70259050  0.73741933  1
  Li  Li209  1  0.91294350  0.70259050  0.90408600  1
  Li  Li210  1  0.91294350  0.86925717  0.07075267  1
  Li  Li211  1  0.91294350  0.86925717  0.23741933  1
  Li  Li212  1  0.91294350  0.86925717  0.40408600  1
  Li  Li213  1  0.91294350  0.86925717  0.57075267  1
  Li  Li214  1  0.91294350  0.86925717  0.73741933  1
  Li  Li215  1  0.91294350  0.86925717  0.90408600  1
  Li  Li216  1  0.08705650  0.13074283  0.09591400  1
  Li  Li217  1  0.08705650  0.13074283  0.26258067  1
  Li  Li218  1  0.08705650  0.13074283  0.42924733  1
  Li  Li219  1  0.08705650  0.13074283  0.59591400  1
  Li  Li220  1  0.08705650  0.13074283  0.76258067  1
  Li  Li221  1  0.08705650  0.13074283  0.92924733  1
  Li  Li222  1  0.08705650  0.29740950  0.09591400  1
  Li  Li223  1  0.08705650  0.29740950  0.26258067  1
  Li  Li224  1  0.08705650  0.29740950  0.42924733  1
  Li  Li225  1  0.08705650  0.29740950  0.59591400  1
  Li  Li226  1  0.08705650  0.29740950  0.76258067  1
  Li  Li227  1  0.08705650  0.29740950  0.92924733  1
  Li  Li228  1  0.08705650  0.46407617  0.09591400  1
  Li  Li229  1  0.08705650  0.46407617  0.26258067  1
  Li  Li230  1  0.08705650  0.46407617  0.42924733  1
  Li  Li231  1  0.08705650  0.46407617  0.59591400  1
  Li  Li232  1  0.08705650  0.46407617  0.76258067  1
  Li  Li233  1  0.08705650  0.46407617  0.92924733  1
  Li  Li234  1  0.08705650  0.63074283  0.09591400  1
  Li  Li235  1  0.08705650  0.63074283  0.26258067  1
  Li  Li236  1  0.08705650  0.63074283  0.42924733  1
  Li  Li237  1  0.08705650  0.63074283  0.59591400  1
  Li  Li238  1  0.08705650  0.63074283  0.76258067  1
  Li  Li239  1  0.08705650  0.63074283  0.92924733  1
  Li  Li240  1  0.08705650  0.79740950  0.09591400  1
  Li  Li241  1  0.08705650  0.79740950  0.26258067  1
  Li  Li242  1  0.08705650  0.79740950  0.42924733  1
  Li  Li243  1  0.08705650  0.79740950  0.59591400  1
  Li  Li244  1  0.08705650  0.79740950  0.76258067  1
  Li  Li245  1  0.08705650  0.79740950  0.92924733  1
  Li  Li246  1  0.08705650  0.96407617  0.09591400  1
  Li  Li247  1  0.08705650  0.96407617  0.26258067  1
  Li  Li248  1  0.08705650  0.96407617  0.42924733  1
  Li  Li249  1  0.08705650  0.96407617  0.59591400  1
  Li  Li250  1  0.08705650  0.96407617  0.76258067  1
  Li  Li251  1  0.08705650  0.96407617  0.92924733  1
  Li  Li252  1  0.25372317  0.13074283  0.09591400  1
  Li  Li253  1  0.25372317  0.13074283  0.26258067  1
  Li  Li254  1  0.25372317  0.13074283  0.42924733  1
  Li  Li255  1  0.25372317  0.13074283  0.59591400  1
  Li  Li256  1  0.25372317  0.13074283  0.76258067  1
  Li  Li257  1  0.25372317  0.13074283  0.92924733  1
  Li  Li258  1  0.25372317  0.29740950  0.09591400  1
  Li  Li259  1  0.25372317  0.29740950  0.26258067  1
  Li  Li260  1  0.25372317  0.29740950  0.42924733  1
  Li  Li261  1  0.25372317  0.29740950  0.59591400  1
  Li  Li262  1  0.25372317  0.29740950  0.76258067  1
  Li  Li263  1  0.25372317  0.29740950  0.92924733  1
  Li  Li264  1  0.25372317  0.46407617  0.09591400  1
  Li  Li265  1  0.25372317  0.46407617  0.26258067  1
  Li  Li266  1  0.25372317  0.46407617  0.42924733  1
  Li  Li267  1  0.25372317  0.46407617  0.59591400  1
  Li  Li268  1  0.25372317  0.46407617  0.76258067  1
  Li  Li269  1  0.25372317  0.46407617  0.92924733  1
  Li  Li270  1  0.25372317  0.63074283  0.09591400  1
  Li  Li271  1  0.25372317  0.63074283  0.26258067  1
  Li  Li272  1  0.25372317  0.63074283  0.42924733  1
  Li  Li273  1  0.25372317  0.63074283  0.59591400  1
  Li  Li274  1  0.25372317  0.63074283  0.76258067  1
  Li  Li275  1  0.25372317  0.63074283  0.92924733  1
  Li  Li276  1  0.25372317  0.79740950  0.09591400  1
  Li  Li277  1  0.25372317  0.79740950  0.26258067  1
  Li  Li278  1  0.25372317  0.79740950  0.42924733  1
  Li  Li279  1  0.25372317  0.79740950  0.59591400  1
  Li  Li280  1  0.25372317  0.79740950  0.76258067  1
  Li  Li281  1  0.25372317  0.79740950  0.92924733  1
  Li  Li282  1  0.25372317  0.96407617  0.09591400  1
  Li  Li283  1  0.25372317  0.96407617  0.26258067  1
  Li  Li284  1  0.25372317  0.96407617  0.42924733  1
  Li  Li285  1  0.25372317  0.96407617  0.59591400  1
  Li  Li286  1  0.25372317  0.96407617  0.76258067  1
  Li  Li287  1  0.25372317  0.96407617  0.92924733  1
  Li  Li288  1  0.42038983  0.13074283  0.09591400  1
  Li  Li289  1  0.42038983  0.13074283  0.26258067  1
  Li  Li290  1  0.42038983  0.13074283  0.42924733  1
  Li  Li291  1  0.42038983  0.13074283  0.59591400  1
  Li  Li292  1  0.42038983  0.13074283  0.76258067  1
  Li  Li293  1  0.42038983  0.13074283  0.92924733  1
  Li  Li294  1  0.42038983  0.29740950  0.09591400  1
  Li  Li295  1  0.42038983  0.29740950  0.26258067  1
  Li  Li296  1  0.42038983  0.29740950  0.42924733  1
  Li  Li297  1  0.42038983  0.29740950  0.59591400  1
  Li  Li298  1  0.42038983  0.29740950  0.76258067  1
  Li  Li299  1  0.42038983  0.29740950  0.92924733  1
  Li  Li300  1  0.42038983  0.46407617  0.09591400  1
  Li  Li301  1  0.42038983  0.46407617  0.26258067  1
  Li  Li302  1  0.42038983  0.46407617  0.42924733  1
  Li  Li303  1  0.42038983  0.46407617  0.59591400  1
  Li  Li304  1  0.42038983  0.46407617  0.76258067  1
  Li  Li305  1  0.42038983  0.46407617  0.92924733  1
  Li  Li306  1  0.42038983  0.63074283  0.09591400  1
  Li  Li307  1  0.42038983  0.63074283  0.26258067  1
  Li  Li308  1  0.42038983  0.63074283  0.42924733  1
  Li  Li309  1  0.42038983  0.63074283  0.59591400  1
  Li  Li310  1  0.42038983  0.63074283  0.76258067  1
  Li  Li311  1  0.42038983  0.63074283  0.92924733  1
  Li  Li312  1  0.42038983  0.79740950  0.09591400  1
  Li  Li313  1  0.42038983  0.79740950  0.26258067  1
  Li  Li314  1  0.42038983  0.79740950  0.42924733  1
  Li  Li315  1  0.42038983  0.79740950  0.59591400  1
  Li  Li316  1  0.42038983  0.79740950  0.76258067  1
  Li  Li317  1  0.42038983  0.79740950  0.92924733  1
  Li  Li318  1  0.42038983  0.96407617  0.09591400  1
  Li  Li319  1  0.42038983  0.96407617  0.26258067  1
  Li  Li320  1  0.42038983  0.96407617  0.42924733  1
  Li  Li321  1  0.42038983  0.96407617  0.59591400  1
  Li  Li322  1  0.42038983  0.96407617  0.76258067  1
  Li  Li323  1  0.42038983  0.96407617  0.92924733  1
  Li  Li324  1  0.58705650  0.13074283  0.09591400  1
  Li  Li325  1  0.58705650  0.13074283  0.26258067  1
  Li  Li326  1  0.58705650  0.13074283  0.42924733  1
  Li  Li327  1  0.58705650  0.13074283  0.59591400  1
  Li  Li328  1  0.58705650  0.13074283  0.76258067  1
  Li  Li329  1  0.58705650  0.13074283  0.92924733  1
  Li  Li330  1  0.58705650  0.29740950  0.09591400  1
  Li  Li331  1  0.58705650  0.29740950  0.26258067  1
  Li  Li332  1  0.58705650  0.29740950  0.42924733  1
  Li  Li333  1  0.58705650  0.29740950  0.59591400  1
  Li  Li334  1  0.58705650  0.29740950  0.76258067  1
  Li  Li335  1  0.58705650  0.29740950  0.92924733  1
  Li  Li336  1  0.58705650  0.46407617  0.09591400  1
  Li  Li337  1  0.58705650  0.46407617  0.26258067  1
  Li  Li338  1  0.58705650  0.46407617  0.42924733  1
  Li  Li339  1  0.58705650  0.46407617  0.59591400  1
  Li  Li340  1  0.58705650  0.46407617  0.76258067  1
  Li  Li341  1  0.58705650  0.46407617  0.92924733  1
  Li  Li342  1  0.58705650  0.63074283  0.09591400  1
  Li  Li343  1  0.58705650  0.63074283  0.26258067  1
  Li  Li344  1  0.58705650  0.63074283  0.42924733  1
  Li  Li345  1  0.58705650  0.63074283  0.59591400  1
  Li  Li346  1  0.58705650  0.63074283  0.76258067  1
  Li  Li347  1  0.58705650  0.63074283  0.92924733  1
  Li  Li348  1  0.58705650  0.79740950  0.09591400  1
  Li  Li349  1  0.58705650  0.79740950  0.26258067  1
  Li  Li350  1  0.58705650  0.79740950  0.42924733  1
  Li  Li351  1  0.58705650  0.79740950  0.59591400  1
  Li  Li352  1  0.58705650  0.79740950  0.76258067  1
  Li  Li353  1  0.58705650  0.79740950  0.92924733  1
  Li  Li354  1  0.58705650  0.96407617  0.09591400  1
  Li  Li355  1  0.58705650  0.96407617  0.26258067  1
  Li  Li356  1  0.58705650  0.96407617  0.42924733  1
  Li  Li357  1  0.58705650  0.96407617  0.59591400  1
  Li  Li358  1  0.58705650  0.96407617  0.76258067  1
  Li  Li359  1  0.58705650  0.96407617  0.92924733  1
  Li  Li360  1  0.75372317  0.13074283  0.09591400  1
  Li  Li361  1  0.75372317  0.13074283  0.26258067  1
  Li  Li362  1  0.75372317  0.13074283  0.42924733  1
  Li  Li363  1  0.75372317  0.13074283  0.59591400  1
  Li  Li364  1  0.75372317  0.13074283  0.76258067  1
  Li  Li365  1  0.75372317  0.13074283  0.92924733  1
  Li  Li366  1  0.75372317  0.29740950  0.09591400  1
  Li  Li367  1  0.75372317  0.29740950  0.26258067  1
  Li  Li368  1  0.75372317  0.29740950  0.42924733  1
  Li  Li369  1  0.75372317  0.29740950  0.59591400  1
  Li  Li370  1  0.75372317  0.29740950  0.76258067  1
  Li  Li371  1  0.75372317  0.29740950  0.92924733  1
  Li  Li372  1  0.75372317  0.46407617  0.09591400  1
  Li  Li373  1  0.75372317  0.46407617  0.26258067  1
  Li  Li374  1  0.75372317  0.46407617  0.42924733  1
  Li  Li375  1  0.75372317  0.46407617  0.59591400  1
  Li  Li376  1  0.75372317  0.46407617  0.76258067  1
  Li  Li377  1  0.75372317  0.46407617  0.92924733  1
  Li  Li378  1  0.75372317  0.63074283  0.09591400  1
  Li  Li379  1  0.75372317  0.63074283  0.26258067  1
  Li  Li380  1  0.75372317  0.63074283  0.42924733  1
  Li  Li381  1  0.75372317  0.63074283  0.59591400  1
  Li  Li382  1  0.75372317  0.63074283  0.76258067  1
  Li  Li383  1  0.75372317  0.63074283  0.92924733  1
  Li  Li384  1  0.75372317  0.79740950  0.09591400  1
  Li  Li385  1  0.75372317  0.79740950  0.26258067  1
  Li  Li386  1  0.75372317  0.79740950  0.42924733  1
  Li  Li387  1  0.75372317  0.79740950  0.59591400  1
  Li  Li388  1  0.75372317  0.79740950  0.76258067  1
  Li  Li389  1  0.75372317  0.79740950  0.92924733  1
  Li  Li390  1  0.75372317  0.96407617  0.09591400  1
  Li  Li391  1  0.75372317  0.96407617  0.26258067  1
  Li  Li392  1  0.75372317  0.96407617  0.42924733  1
  Li  Li393  1  0.75372317  0.96407617  0.59591400  1
  Li  Li394  1  0.75372317  0.96407617  0.76258067  1
  Li  Li395  1  0.75372317  0.96407617  0.92924733  1
  Li  Li396  1  0.92038983  0.13074283  0.09591400  1
  Li  Li397  1  0.92038983  0.13074283  0.26258067  1
  Li  Li398  1  0.92038983  0.13074283  0.42924733  1
  Li  Li399  1  0.92038983  0.13074283  0.59591400  1
  Li  Li400  1  0.92038983  0.13074283  0.76258067  1
  Li  Li401  1  0.92038983  0.13074283  0.92924733  1
  Li  Li402  1  0.92038983  0.29740950  0.09591400  1
  Li  Li403  1  0.92038983  0.29740950  0.26258067  1
  Li  Li404  1  0.92038983  0.29740950  0.42924733  1
  Li  Li405  1  0.92038983  0.29740950  0.59591400  1
  Li  Li406  1  0.92038983  0.29740950  0.76258067  1
  Li  Li407  1  0.92038983  0.29740950  0.92924733  1
  Li  Li408  1  0.92038983  0.46407617  0.09591400  1
  Li  Li409  1  0.92038983  0.46407617  0.26258067  1
  Li  Li410  1  0.92038983  0.46407617  0.42924733  1
  Li  Li411  1  0.92038983  0.46407617  0.59591400  1
  Li  Li412  1  0.92038983  0.46407617  0.76258067  1
  Li  Li413  1  0.92038983  0.46407617  0.92924733  1
  Li  Li414  1  0.92038983  0.63074283  0.09591400  1
  Li  Li415  1  0.92038983  0.63074283  0.26258067  1
  Li  Li416  1  0.92038983  0.63074283  0.42924733  1
  Li  Li417  1  0.92038983  0.63074283  0.59591400  1
  Li  Li418  1  0.92038983  0.63074283  0.76258067  1
  Li  Li419  1  0.92038983  0.63074283  0.92924733  1
  Li  Li420  1  0.92038983  0.79740950  0.09591400  1
  Li  Li421  1  0.92038983  0.79740950  0.26258067  1
  Li  Li422  1  0.92038983  0.79740950  0.42924733  1
  Li  Li423  1  0.92038983  0.79740950  0.59591400  1
  Li  Li424  1  0.92038983  0.79740950  0.76258067  1
  Li  Li425  1  0.92038983  0.79740950  0.92924733  1
  Li  Li426  1  0.92038983  0.96407617  0.09591400  1
  Li  Li427  1  0.92038983  0.96407617  0.26258067  1
  Li  Li428  1  0.92038983  0.96407617  0.42924733  1
  Li  Li429  1  0.92038983  0.96407617  0.59591400  1
  Li  Li430  1  0.92038983  0.96407617  0.76258067  1
  Li  Li431  1  0.92038983  0.96407617  0.92924733  1
  U  U432  1  0.00000000  0.00000000  0.00000000  1
  U  U433  1  0.00000000  1.00000000  0.16666667  1
  U  U434  1  0.00000000  1.00000000  0.33333333  1
  U  U435  1  1.00000000  1.00000000  0.50000000  1
  U  U436  1  0.00000000  1.00000000  0.66666667  1
  U  U437  1  0.00000000  1.00000000  0.83333333  1
  U  U438  1  0.00000000  0.16666667  0.00000000  1
  U  U439  1  0.00000000  0.16666667  0.16666667  1
  U  U440  1  0.00000000  0.16666667  0.33333333  1
  U  U441  1  0.00000000  0.16666667  0.50000000  1
  U  U442  1  0.00000000  0.16666667  0.66666667  1
  U  U443  1  0.00000000  0.16666667  0.83333333  1
  U  U444  1  0.00000000  0.33333333  0.00000000  1
  U  U445  1  0.00000000  0.33333333  0.16666667  1
  U  U446  1  0.00000000  0.33333333  0.33333333  1
  U  U447  1  0.00000000  0.33333333  0.50000000  1
  U  U448  1  0.00000000  0.33333333  0.66666667  1
  U  U449  1  0.00000000  0.33333333  0.83333333  1
  U  U450  1  0.00000000  0.50000000  0.00000000  1
  U  U451  1  0.00000000  0.50000000  0.16666667  1
  U  U452  1  0.00000000  0.50000000  0.33333333  1
  U  U453  1  0.00000000  0.50000000  0.50000000  1
  U  U454  1  0.00000000  0.50000000  0.66666667  1
  U  U455  1  0.00000000  0.50000000  0.83333333  1
  U  U456  1  0.00000000  0.66666667  0.00000000  1
  U  U457  1  0.00000000  0.66666667  0.16666667  1
  U  U458  1  0.00000000  0.66666667  0.33333333  1
  U  U459  1  0.00000000  0.66666667  0.50000000  1
  U  U460  1  0.00000000  0.66666667  0.66666667  1
  U  U461  1  0.00000000  0.66666667  0.83333333  1
  U  U462  1  0.00000000  0.83333333  0.00000000  1
  U  U463  1  0.00000000  0.83333333  0.16666667  1
  U  U464  1  0.00000000  0.83333333  0.33333333  1
  U  U465  1  0.00000000  0.83333333  0.50000000  1
  U  U466  1  0.00000000  0.83333333  0.66666667  1
  U  U467  1  0.00000000  0.83333333  0.83333333  1
  U  U468  1  0.16666667  1.00000000  1.00000000  1
  U  U469  1  0.16666667  1.00000000  0.16666667  1
  U  U470  1  0.16666667  1.00000000  0.33333333  1
  U  U471  1  0.16666667  0.00000000  0.50000000  1
  U  U472  1  0.16666667  1.00000000  0.66666667  1
  U  U473  1  0.16666667  0.00000000  0.83333333  1
  U  U474  1  0.16666667  0.16666667  1.00000000  1
  U  U475  1  0.16666667  0.16666667  0.16666667  1
  U  U476  1  0.16666667  0.16666667  0.33333333  1
  U  U477  1  0.16666667  0.16666667  0.50000000  1
  U  U478  1  0.16666667  0.16666667  0.66666667  1
  U  U479  1  0.16666667  0.16666667  0.83333333  1
  U  U480  1  0.16666667  0.33333333  0.00000000  1
  U  U481  1  0.16666667  0.33333333  0.16666667  1
  U  U482  1  0.16666667  0.33333333  0.33333333  1
  U  U483  1  0.16666667  0.33333333  0.50000000  1
  U  U484  1  0.16666667  0.33333333  0.66666667  1
  U  U485  1  0.16666667  0.33333333  0.83333333  1
  U  U486  1  0.16666667  0.50000000  0.00000000  1
  U  U487  1  0.16666667  0.50000000  0.16666667  1
  U  U488  1  0.16666667  0.50000000  0.33333333  1
  U  U489  1  0.16666667  0.50000000  0.50000000  1
  U  U490  1  0.16666667  0.50000000  0.66666667  1
  U  U491  1  0.16666667  0.50000000  0.83333333  1
  U  U492  1  0.16666667  0.66666667  0.00000000  1
  U  U493  1  0.16666667  0.66666667  0.16666667  1
  U  U494  1  0.16666667  0.66666667  0.33333333  1
  U  U495  1  0.16666667  0.66666667  0.50000000  1
  U  U496  1  0.16666667  0.66666667  0.66666667  1
  U  U497  1  0.16666667  0.66666667  0.83333333  1
  U  U498  1  0.16666667  0.83333333  0.00000000  1
  U  U499  1  0.16666667  0.83333333  0.16666667  1
  U  U500  1  0.16666667  0.83333333  0.33333333  1
  U  U501  1  0.16666667  0.83333333  0.50000000  1
  U  U502  1  0.16666667  0.83333333  0.66666667  1
  U  U503  1  0.16666667  0.83333333  0.83333333  1
  U  U504  1  0.33333333  1.00000000  1.00000000  1
  U  U505  1  0.33333333  0.00000000  0.16666667  1
  U  U506  1  0.33333333  1.00000000  0.33333333  1
  U  U507  1  0.33333333  0.00000000  0.50000000  1
  U  U508  1  0.33333333  1.00000000  0.66666667  1
  U  U509  1  0.33333333  1.00000000  0.83333333  1
  U  U510  1  0.33333333  0.16666667  0.00000000  1
  U  U511  1  0.33333333  0.16666667  0.16666667  1
  U  U512  1  0.33333333  0.16666667  0.33333333  1
  U  U513  1  0.33333333  0.16666667  0.50000000  1
  U  U514  1  0.33333333  0.16666667  0.66666667  1
  U  U515  1  0.33333333  0.16666667  0.83333333  1
  U  U516  1  0.33333333  0.33333333  1.00000000  1
  U  U517  1  0.33333333  0.33333333  0.16666667  1
  U  U518  1  0.33333333  0.33333333  0.33333333  1
  U  U519  1  0.33333333  0.33333333  0.50000000  1
  U  U520  1  0.33333333  0.33333333  0.66666667  1
  U  U521  1  0.33333333  0.33333333  0.83333333  1
  U  U522  1  0.33333333  0.50000000  0.00000000  1
  U  U523  1  0.33333333  0.50000000  0.16666667  1
  U  U524  1  0.33333333  0.50000000  0.33333333  1
  U  U525  1  0.33333333  0.50000000  0.50000000  1
  U  U526  1  0.33333333  0.50000000  0.66666667  1
  U  U527  1  0.33333333  0.50000000  0.83333333  1
  U  U528  1  0.33333333  0.66666667  0.00000000  1
  U  U529  1  0.33333333  0.66666667  0.16666667  1
  U  U530  1  0.33333333  0.66666667  0.33333333  1
  U  U531  1  0.33333333  0.66666667  0.50000000  1
  U  U532  1  0.33333333  0.66666667  0.66666667  1
  U  U533  1  0.33333333  0.66666667  0.83333333  1
  U  U534  1  0.33333333  0.83333333  0.00000000  1
  U  U535  1  0.33333333  0.83333333  0.16666667  1
  U  U536  1  0.33333333  0.83333333  0.33333333  1
  U  U537  1  0.33333333  0.83333333  0.50000000  1
  U  U538  1  0.33333333  0.83333333  0.66666667  1
  U  U539  1  0.33333333  0.83333333  0.83333333  1
  U  U540  1  0.50000000  1.00000000  1.00000000  1
  U  U541  1  0.50000000  1.00000000  0.16666667  1
  U  U542  1  0.50000000  1.00000000  0.33333333  1
  U  U543  1  0.50000000  1.00000000  0.50000000  1
  U  U544  1  0.50000000  1.00000000  0.66666667  1
  U  U545  1  0.50000000  1.00000000  0.83333333  1
  U  U546  1  0.50000000  0.16666667  0.00000000  1
  U  U547  1  0.50000000  0.16666667  0.16666667  1
  U  U548  1  0.50000000  0.16666667  0.33333333  1
  U  U549  1  0.50000000  0.16666667  0.50000000  1
  U  U550  1  0.50000000  0.16666667  0.66666667  1
  U  U551  1  0.50000000  0.16666667  0.83333333  1
  U  U552  1  0.50000000  0.33333333  0.00000000  1
  U  U553  1  0.50000000  0.33333333  0.16666667  1
  U  U554  1  0.50000000  0.33333333  0.33333333  1
  U  U555  1  0.50000000  0.33333333  0.50000000  1
  U  U556  1  0.50000000  0.33333333  0.66666667  1
  U  U557  1  0.50000000  0.33333333  0.83333333  1
  U  U558  1  0.50000000  0.50000000  0.00000000  1
  U  U559  1  0.50000000  0.50000000  0.16666667  1
  U  U560  1  0.50000000  0.50000000  0.33333333  1
  U  U561  1  0.50000000  0.50000000  0.50000000  1
  U  U562  1  0.50000000  0.50000000  0.66666667  1
  U  U563  1  0.50000000  0.50000000  0.83333333  1
  U  U564  1  0.50000000  0.66666667  0.00000000  1
  U  U565  1  0.50000000  0.66666667  0.16666667  1
  U  U566  1  0.50000000  0.66666667  0.33333333  1
  U  U567  1  0.50000000  0.66666667  0.50000000  1
  U  U568  1  0.50000000  0.66666667  0.66666667  1
  U  U569  1  0.50000000  0.66666667  0.83333333  1
  U  U570  1  0.50000000  0.83333333  1.00000000  1
  U  U571  1  0.50000000  0.83333333  0.16666667  1
  U  U572  1  0.50000000  0.83333333  0.33333333  1
  U  U573  1  0.50000000  0.83333333  0.50000000  1
  U  U574  1  0.50000000  0.83333333  0.66666667  1
  U  U575  1  0.50000000  0.83333333  0.83333333  1
  U  U576  1  0.66666667  1.00000000  1.00000000  1
  U  U577  1  0.66666667  1.00000000  0.16666667  1
  U  U578  1  0.66666667  0.00000000  0.33333333  1
  U  U579  1  0.66666667  0.00000000  0.50000000  1
  U  U580  1  0.66666667  1.00000000  0.66666667  1
  U  U581  1  0.66666667  1.00000000  0.83333333  1
  U  U582  1  0.66666667  0.16666667  1.00000000  1
  U  U583  1  0.66666667  0.16666667  0.16666667  1
  U  U584  1  0.66666667  0.16666667  0.33333333  1
  U  U585  1  0.66666667  0.16666667  0.50000000  1
  U  U586  1  0.66666667  0.16666667  0.66666667  1
  U  U587  1  0.66666667  0.16666667  0.83333333  1
  U  U588  1  0.66666667  0.33333333  0.00000000  1
  U  U589  1  0.66666667  0.33333333  0.16666667  1
  U  U590  1  0.66666667  0.33333333  0.33333333  1
  U  U591  1  0.66666667  0.33333333  0.50000000  1
  U  U592  1  0.66666667  0.33333333  0.66666667  1
  U  U593  1  0.66666667  0.33333333  0.83333333  1
  U  U594  1  0.66666667  0.50000000  1.00000000  1
  U  U595  1  0.66666667  0.50000000  0.16666667  1
  U  U596  1  0.66666667  0.50000000  0.33333333  1
  U  U597  1  0.66666667  0.50000000  0.50000000  1
  U  U598  1  0.66666667  0.50000000  0.66666667  1
  U  U599  1  0.66666667  0.50000000  0.83333333  1
  U  U600  1  0.66666667  0.66666667  1.00000000  1
  U  U601  1  0.66666667  0.66666667  0.16666667  1
  U  U602  1  0.66666667  0.66666667  0.33333333  1
  U  U603  1  0.66666667  0.66666667  0.50000000  1
  U  U604  1  0.66666667  0.66666667  0.66666667  1
  U  U605  1  0.66666667  0.66666667  0.83333333  1
  U  U606  1  0.66666667  0.83333333  0.00000000  1
  U  U607  1  0.66666667  0.83333333  0.16666667  1
  U  U608  1  0.66666667  0.83333333  0.33333333  1
  U  U609  1  0.66666667  0.83333333  0.50000000  1
  U  U610  1  0.66666667  0.83333333  0.66666667  1
  U  U611  1  0.66666667  0.83333333  0.83333333  1
  U  U612  1  0.83333333  1.00000000  0.00000000  1
  U  U613  1  0.83333333  1.00000000  0.16666667  1
  U  U614  1  0.83333333  1.00000000  0.33333333  1
  U  U615  1  0.83333333  1.00000000  0.50000000  1
  U  U616  1  0.83333333  1.00000000  0.66666667  1
  U  U617  1  0.83333333  1.00000000  0.83333333  1
  U  U618  1  0.83333333  0.16666667  0.00000000  1
  U  U619  1  0.83333333  0.16666667  0.16666667  1
  U  U620  1  0.83333333  0.16666667  0.33333333  1
  U  U621  1  0.83333333  0.16666667  0.50000000  1
  U  U622  1  0.83333333  0.16666667  0.66666667  1
  U  U623  1  0.83333333  0.16666667  0.83333333  1
  U  U624  1  0.83333333  0.33333333  1.00000000  1
  U  U625  1  0.83333333  0.33333333  0.16666667  1
  U  U626  1  0.83333333  0.33333333  0.33333333  1
  U  U627  1  0.83333333  0.33333333  0.50000000  1
  U  U628  1  0.83333333  0.33333333  0.66666667  1
  U  U629  1  0.83333333  0.33333333  0.83333333  1
  U  U630  1  0.83333333  0.50000000  0.00000000  1
  U  U631  1  0.83333333  0.50000000  0.16666667  1
  U  U632  1  0.83333333  0.50000000  0.33333333  1
  U  U633  1  0.83333333  0.50000000  0.50000000  1
  U  U634  1  0.83333333  0.50000000  0.66666667  1
  U  U635  1  0.83333333  0.50000000  0.83333333  1
  U  U636  1  0.83333333  0.66666667  0.00000000  1
  U  U637  1  0.83333333  0.66666667  0.16666667  1
  U  U638  1  0.83333333  0.66666667  0.33333333  1
  U  U639  1  0.83333333  0.66666667  0.50000000  1
  U  U640  1  0.83333333  0.66666667  0.66666667  1
  U  U641  1  0.83333333  0.66666667  0.83333333  1
  U  U642  1  0.83333333  0.83333333  0.00000000  1
  U  U643  1  0.83333333  0.83333333  0.16666667  1
  U  U644  1  0.83333333  0.83333333  0.33333333  1
  U  U645  1  0.83333333  0.83333333  0.50000000  1
  U  U646  1  0.83333333  0.83333333  0.66666667  1
  U  U647  1  0.83333333  0.83333333  0.83333333  1
  Mo  Mo648  1  0.15288517  0.10816817  0.04998517  1
  Mo  Mo649  1  0.15288517  0.10816817  0.21665183  1
  Mo  Mo650  1  0.15288517  0.10816817  0.38331850  1
  Mo  Mo651  1  0.15288517  0.10816817  0.54998517  1
  Mo  Mo652  1  0.15288517  0.10816817  0.71665183  1
  Mo  Mo653  1  0.15288517  0.10816817  0.88331850  1
  Mo  Mo654  1  0.15288517  0.27483483  0.04998517  1
  Mo  Mo655  1  0.15288517  0.27483483  0.21665183  1
  Mo  Mo656  1  0.15288517  0.27483483  0.38331850  1
  Mo  Mo657  1  0.15288517  0.27483483  0.54998517  1
  Mo  Mo658  1  0.15288517  0.27483483  0.71665183  1
  Mo  Mo659  1  0.15288517  0.27483483  0.88331850  1
  Mo  Mo660  1  0.15288517  0.44150150  0.04998517  1
  Mo  Mo661  1  0.15288517  0.44150150  0.21665183  1
  Mo  Mo662  1  0.15288517  0.44150150  0.38331850  1
  Mo  Mo663  1  0.15288517  0.44150150  0.54998517  1
  Mo  Mo664  1  0.15288517  0.44150150  0.71665183  1
  Mo  Mo665  1  0.15288517  0.44150150  0.88331850  1
  Mo  Mo666  1  0.15288517  0.60816817  0.04998517  1
  Mo  Mo667  1  0.15288517  0.60816817  0.21665183  1
  Mo  Mo668  1  0.15288517  0.60816817  0.38331850  1
  Mo  Mo669  1  0.15288517  0.60816817  0.54998517  1
  Mo  Mo670  1  0.15288517  0.60816817  0.71665183  1
  Mo  Mo671  1  0.15288517  0.60816817  0.88331850  1
  Mo  Mo672  1  0.15288517  0.77483483  0.04998517  1
  Mo  Mo673  1  0.15288517  0.77483483  0.21665183  1
  Mo  Mo674  1  0.15288517  0.77483483  0.38331850  1
  Mo  Mo675  1  0.15288517  0.77483483  0.54998517  1
  Mo  Mo676  1  0.15288517  0.77483483  0.71665183  1
  Mo  Mo677  1  0.15288517  0.77483483  0.88331850  1
  Mo  Mo678  1  0.15288517  0.94150150  0.04998517  1
  Mo  Mo679  1  0.15288517  0.94150150  0.21665183  1
  Mo  Mo680  1  0.15288517  0.94150150  0.38331850  1
  Mo  Mo681  1  0.15288517  0.94150150  0.54998517  1
  Mo  Mo682  1  0.15288517  0.94150150  0.71665183  1
  Mo  Mo683  1  0.15288517  0.94150150  0.88331850  1
  Mo  Mo684  1  0.31955183  0.10816817  0.04998517  1
  Mo  Mo685  1  0.31955183  0.10816817  0.21665183  1
  Mo  Mo686  1  0.31955183  0.10816817  0.38331850  1
  Mo  Mo687  1  0.31955183  0.10816817  0.54998517  1
  Mo  Mo688  1  0.31955183  0.10816817  0.71665183  1
  Mo  Mo689  1  0.31955183  0.10816817  0.88331850  1
  Mo  Mo690  1  0.31955183  0.27483483  0.04998517  1
  Mo  Mo691  1  0.31955183  0.27483483  0.21665183  1
  Mo  Mo692  1  0.31955183  0.27483483  0.38331850  1
  Mo  Mo693  1  0.31955183  0.27483483  0.54998517  1
  Mo  Mo694  1  0.31955183  0.27483483  0.71665183  1
  Mo  Mo695  1  0.31955183  0.27483483  0.88331850  1
  Mo  Mo696  1  0.31955183  0.44150150  0.04998517  1
  Mo  Mo697  1  0.31955183  0.44150150  0.21665183  1
  Mo  Mo698  1  0.31955183  0.44150150  0.38331850  1
  Mo  Mo699  1  0.31955183  0.44150150  0.54998517  1
  Mo  Mo700  1  0.31955183  0.44150150  0.71665183  1
  Mo  Mo701  1  0.31955183  0.44150150  0.88331850  1
  Mo  Mo702  1  0.31955183  0.60816817  0.04998517  1
  Mo  Mo703  1  0.31955183  0.60816817  0.21665183  1
  Mo  Mo704  1  0.31955183  0.60816817  0.38331850  1
  Mo  Mo705  1  0.31955183  0.60816817  0.54998517  1
  Mo  Mo706  1  0.31955183  0.60816817  0.71665183  1
  Mo  Mo707  1  0.31955183  0.60816817  0.88331850  1
  Mo  Mo708  1  0.31955183  0.77483483  0.04998517  1
  Mo  Mo709  1  0.31955183  0.77483483  0.21665183  1
  Mo  Mo710  1  0.31955183  0.77483483  0.38331850  1
  Mo  Mo711  1  0.31955183  0.77483483  0.54998517  1
  Mo  Mo712  1  0.31955183  0.77483483  0.71665183  1
  Mo  Mo713  1  0.31955183  0.77483483  0.88331850  1
  Mo  Mo714  1  0.31955183  0.94150150  0.04998517  1
  Mo  Mo715  1  0.31955183  0.94150150  0.21665183  1
  Mo  Mo716  1  0.31955183  0.94150150  0.38331850  1
  Mo  Mo717  1  0.31955183  0.94150150  0.54998517  1
  Mo  Mo718  1  0.31955183  0.94150150  0.71665183  1
  Mo  Mo719  1  0.31955183  0.94150150  0.88331850  1
  Mo  Mo720  1  0.48621850  0.10816817  0.04998517  1
  Mo  Mo721  1  0.48621850  0.10816817  0.21665183  1
  Mo  Mo722  1  0.48621850  0.10816817  0.38331850  1
  Mo  Mo723  1  0.48621850  0.10816817  0.54998517  1
  Mo  Mo724  1  0.48621850  0.10816817  0.71665183  1
  Mo  Mo725  1  0.48621850  0.10816817  0.88331850  1
  Mo  Mo726  1  0.48621850  0.27483483  0.04998517  1
  Mo  Mo727  1  0.48621850  0.27483483  0.21665183  1
  Mo  Mo728  1  0.48621850  0.27483483  0.38331850  1
  Mo  Mo729  1  0.48621850  0.27483483  0.54998517  1
  Mo  Mo730  1  0.48621850  0.27483483  0.71665183  1
  Mo  Mo731  1  0.48621850  0.27483483  0.88331850  1
  Mo  Mo732  1  0.48621850  0.44150150  0.04998517  1
  Mo  Mo733  1  0.48621850  0.44150150  0.21665183  1
  Mo  Mo734  1  0.48621850  0.44150150  0.38331850  1
  Mo  Mo735  1  0.48621850  0.44150150  0.54998517  1
  Mo  Mo736  1  0.48621850  0.44150150  0.71665183  1
  Mo  Mo737  1  0.48621850  0.44150150  0.88331850  1
  Mo  Mo738  1  0.48621850  0.60816817  0.04998517  1
  Mo  Mo739  1  0.48621850  0.60816817  0.21665183  1
  Mo  Mo740  1  0.48621850  0.60816817  0.38331850  1
  Mo  Mo741  1  0.48621850  0.60816817  0.54998517  1
  Mo  Mo742  1  0.48621850  0.60816817  0.71665183  1
  Mo  Mo743  1  0.48621850  0.60816817  0.88331850  1
  Mo  Mo744  1  0.48621850  0.77483483  0.04998517  1
  Mo  Mo745  1  0.48621850  0.77483483  0.21665183  1
  Mo  Mo746  1  0.48621850  0.77483483  0.38331850  1
  Mo  Mo747  1  0.48621850  0.77483483  0.54998517  1
  Mo  Mo748  1  0.48621850  0.77483483  0.71665183  1
  Mo  Mo749  1  0.48621850  0.77483483  0.88331850  1
  Mo  Mo750  1  0.48621850  0.94150150  0.04998517  1
  Mo  Mo751  1  0.48621850  0.94150150  0.21665183  1
  Mo  Mo752  1  0.48621850  0.94150150  0.38331850  1
  Mo  Mo753  1  0.48621850  0.94150150  0.54998517  1
  Mo  Mo754  1  0.48621850  0.94150150  0.71665183  1
  Mo  Mo755  1  0.48621850  0.94150150  0.88331850  1
  Mo  Mo756  1  0.65288517  0.10816817  0.04998517  1
  Mo  Mo757  1  0.65288517  0.10816817  0.21665183  1
  Mo  Mo758  1  0.65288517  0.10816817  0.38331850  1
  Mo  Mo759  1  0.65288517  0.10816817  0.54998517  1
  Mo  Mo760  1  0.65288517  0.10816817  0.71665183  1
  Mo  Mo761  1  0.65288517  0.10816817  0.88331850  1
  Mo  Mo762  1  0.65288517  0.27483483  0.04998517  1
  Mo  Mo763  1  0.65288517  0.27483483  0.21665183  1
  Mo  Mo764  1  0.65288517  0.27483483  0.38331850  1
  Mo  Mo765  1  0.65288517  0.27483483  0.54998517  1
  Mo  Mo766  1  0.65288517  0.27483483  0.71665183  1
  Mo  Mo767  1  0.65288517  0.27483483  0.88331850  1
  Mo  Mo768  1  0.65288517  0.44150150  0.04998517  1
  Mo  Mo769  1  0.65288517  0.44150150  0.21665183  1
  Mo  Mo770  1  0.65288517  0.44150150  0.38331850  1
  Mo  Mo771  1  0.65288517  0.44150150  0.54998517  1
  Mo  Mo772  1  0.65288517  0.44150150  0.71665183  1
  Mo  Mo773  1  0.65288517  0.44150150  0.88331850  1
  Mo  Mo774  1  0.65288517  0.60816817  0.04998517  1
  Mo  Mo775  1  0.65288517  0.60816817  0.21665183  1
  Mo  Mo776  1  0.65288517  0.60816817  0.38331850  1
  Mo  Mo777  1  0.65288517  0.60816817  0.54998517  1
  Mo  Mo778  1  0.65288517  0.60816817  0.71665183  1
  Mo  Mo779  1  0.65288517  0.60816817  0.88331850  1
  Mo  Mo780  1  0.65288517  0.77483483  0.04998517  1
  Mo  Mo781  1  0.65288517  0.77483483  0.21665183  1
  Mo  Mo782  1  0.65288517  0.77483483  0.38331850  1
  Mo  Mo783  1  0.65288517  0.77483483  0.54998517  1
  Mo  Mo784  1  0.65288517  0.77483483  0.71665183  1
  Mo  Mo785  1  0.65288517  0.77483483  0.88331850  1
  Mo  Mo786  1  0.65288517  0.94150150  0.04998517  1
  Mo  Mo787  1  0.65288517  0.94150150  0.21665183  1
  Mo  Mo788  1  0.65288517  0.94150150  0.38331850  1
  Mo  Mo789  1  0.65288517  0.94150150  0.54998517  1
  Mo  Mo790  1  0.65288517  0.94150150  0.71665183  1
  Mo  Mo791  1  0.65288517  0.94150150  0.88331850  1
  Mo  Mo792  1  0.81955183  0.10816817  0.04998517  1
  Mo  Mo793  1  0.81955183  0.10816817  0.21665183  1
  Mo  Mo794  1  0.81955183  0.10816817  0.38331850  1
  Mo  Mo795  1  0.81955183  0.10816817  0.54998517  1
  Mo  Mo796  1  0.81955183  0.10816817  0.71665183  1
  Mo  Mo797  1  0.81955183  0.10816817  0.88331850  1
  Mo  Mo798  1  0.81955183  0.27483483  0.04998517  1
  Mo  Mo799  1  0.81955183  0.27483483  0.21665183  1
  Mo  Mo800  1  0.81955183  0.27483483  0.38331850  1
  Mo  Mo801  1  0.81955183  0.27483483  0.54998517  1
  Mo  Mo802  1  0.81955183  0.27483483  0.71665183  1
  Mo  Mo803  1  0.81955183  0.27483483  0.88331850  1
  Mo  Mo804  1  0.81955183  0.44150150  0.04998517  1
  Mo  Mo805  1  0.81955183  0.44150150  0.21665183  1
  Mo  Mo806  1  0.81955183  0.44150150  0.38331850  1
  Mo  Mo807  1  0.81955183  0.44150150  0.54998517  1
  Mo  Mo808  1  0.81955183  0.44150150  0.71665183  1
  Mo  Mo809  1  0.81955183  0.44150150  0.88331850  1
  Mo  Mo810  1  0.81955183  0.60816817  0.04998517  1
  Mo  Mo811  1  0.81955183  0.60816817  0.21665183  1
  Mo  Mo812  1  0.81955183  0.60816817  0.38331850  1
  Mo  Mo813  1  0.81955183  0.60816817  0.54998517  1
  Mo  Mo814  1  0.81955183  0.60816817  0.71665183  1
  Mo  Mo815  1  0.81955183  0.60816817  0.88331850  1
  Mo  Mo816  1  0.81955183  0.77483483  0.04998517  1
  Mo  Mo817  1  0.81955183  0.77483483  0.21665183  1
  Mo  Mo818  1  0.81955183  0.77483483  0.38331850  1
  Mo  Mo819  1  0.81955183  0.77483483  0.54998517  1
  Mo  Mo820  1  0.81955183  0.77483483  0.71665183  1
  Mo  Mo821  1  0.81955183  0.77483483  0.88331850  1
  Mo  Mo822  1  0.81955183  0.94150150  0.04998517  1
  Mo  Mo823  1  0.81955183  0.94150150  0.21665183  1
  Mo  Mo824  1  0.81955183  0.94150150  0.38331850  1
  Mo  Mo825  1  0.81955183  0.94150150  0.54998517  1
  Mo  Mo826  1  0.81955183  0.94150150  0.71665183  1
  Mo  Mo827  1  0.81955183  0.94150150  0.88331850  1
  Mo  Mo828  1  0.98621850  0.10816817  0.04998517  1
  Mo  Mo829  1  0.98621850  0.10816817  0.21665183  1
  Mo  Mo830  1  0.98621850  0.10816817  0.38331850  1
  Mo  Mo831  1  0.98621850  0.10816817  0.54998517  1
  Mo  Mo832  1  0.98621850  0.10816817  0.71665183  1
  Mo  Mo833  1  0.98621850  0.10816817  0.88331850  1
  Mo  Mo834  1  0.98621850  0.27483483  0.04998517  1
  Mo  Mo835  1  0.98621850  0.27483483  0.21665183  1
  Mo  Mo836  1  0.98621850  0.27483483  0.38331850  1
  Mo  Mo837  1  0.98621850  0.27483483  0.54998517  1
  Mo  Mo838  1  0.98621850  0.27483483  0.71665183  1
  Mo  Mo839  1  0.98621850  0.27483483  0.88331850  1
  Mo  Mo840  1  0.98621850  0.44150150  0.04998517  1
  Mo  Mo841  1  0.98621850  0.44150150  0.21665183  1
  Mo  Mo842  1  0.98621850  0.44150150  0.38331850  1
  Mo  Mo843  1  0.98621850  0.44150150  0.54998517  1
  Mo  Mo844  1  0.98621850  0.44150150  0.71665183  1
  Mo  Mo845  1  0.98621850  0.44150150  0.88331850  1
  Mo  Mo846  1  0.98621850  0.60816817  0.04998517  1
  Mo  Mo847  1  0.98621850  0.60816817  0.21665183  1
  Mo  Mo848  1  0.98621850  0.60816817  0.38331850  1
  Mo  Mo849  1  0.98621850  0.60816817  0.54998517  1
  Mo  Mo850  1  0.98621850  0.60816817  0.71665183  1
  Mo  Mo851  1  0.98621850  0.60816817  0.88331850  1
  Mo  Mo852  1  0.98621850  0.77483483  0.04998517  1
  Mo  Mo853  1  0.98621850  0.77483483  0.21665183  1
  Mo  Mo854  1  0.98621850  0.77483483  0.38331850  1
  Mo  Mo855  1  0.98621850  0.77483483  0.54998517  1
  Mo  Mo856  1  0.98621850  0.77483483  0.71665183  1
  Mo  Mo857  1  0.98621850  0.77483483  0.88331850  1
  Mo  Mo858  1  0.98621850  0.94150150  0.04998517  1
  Mo  Mo859  1  0.98621850  0.94150150  0.21665183  1
  Mo  Mo860  1  0.98621850  0.94150150  0.38331850  1
  Mo  Mo861  1  0.98621850  0.94150150  0.54998517  1
  Mo  Mo862  1  0.98621850  0.94150150  0.71665183  1
  Mo  Mo863  1  0.98621850  0.94150150  0.88331850  1
  Mo  Mo864  1  0.01378150  0.05849850  0.11668150  1
  Mo  Mo865  1  0.01378150  0.05849850  0.28334817  1
  Mo  Mo866  1  0.01378150  0.05849850  0.45001483  1
  Mo  Mo867  1  0.01378150  0.05849850  0.61668150  1
  Mo  Mo868  1  0.01378150  0.05849850  0.78334817  1
  Mo  Mo869  1  0.01378150  0.05849850  0.95001483  1
  Mo  Mo870  1  0.01378150  0.22516517  0.11668150  1
  Mo  Mo871  1  0.01378150  0.22516517  0.28334817  1
  Mo  Mo872  1  0.01378150  0.22516517  0.45001483  1
  Mo  Mo873  1  0.01378150  0.22516517  0.61668150  1
  Mo  Mo874  1  0.01378150  0.22516517  0.78334817  1
  Mo  Mo875  1  0.01378150  0.22516517  0.95001483  1
  Mo  Mo876  1  0.01378150  0.39183183  0.11668150  1
  Mo  Mo877  1  0.01378150  0.39183183  0.28334817  1
  Mo  Mo878  1  0.01378150  0.39183183  0.45001483  1
  Mo  Mo879  1  0.01378150  0.39183183  0.61668150  1
  Mo  Mo880  1  0.01378150  0.39183183  0.78334817  1
  Mo  Mo881  1  0.01378150  0.39183183  0.95001483  1
  Mo  Mo882  1  0.01378150  0.55849850  0.11668150  1
  Mo  Mo883  1  0.01378150  0.55849850  0.28334817  1
  Mo  Mo884  1  0.01378150  0.55849850  0.45001483  1
  Mo  Mo885  1  0.01378150  0.55849850  0.61668150  1
  Mo  Mo886  1  0.01378150  0.55849850  0.78334817  1
  Mo  Mo887  1  0.01378150  0.55849850  0.95001483  1
  Mo  Mo888  1  0.01378150  0.72516517  0.11668150  1
  Mo  Mo889  1  0.01378150  0.72516517  0.28334817  1
  Mo  Mo890  1  0.01378150  0.72516517  0.45001483  1
  Mo  Mo891  1  0.01378150  0.72516517  0.61668150  1
  Mo  Mo892  1  0.01378150  0.72516517  0.78334817  1
  Mo  Mo893  1  0.01378150  0.72516517  0.95001483  1
  Mo  Mo894  1  0.01378150  0.89183183  0.11668150  1
  Mo  Mo895  1  0.01378150  0.89183183  0.28334817  1
  Mo  Mo896  1  0.01378150  0.89183183  0.45001483  1
  Mo  Mo897  1  0.01378150  0.89183183  0.61668150  1
  Mo  Mo898  1  0.01378150  0.89183183  0.78334817  1
  Mo  Mo899  1  0.01378150  0.89183183  0.95001483  1
  Mo  Mo900  1  0.18044817  0.05849850  0.11668150  1
  Mo  Mo901  1  0.18044817  0.05849850  0.28334817  1
  Mo  Mo902  1  0.18044817  0.05849850  0.45001483  1
  Mo  Mo903  1  0.18044817  0.05849850  0.61668150  1
  Mo  Mo904  1  0.18044817  0.05849850  0.78334817  1
  Mo  Mo905  1  0.18044817  0.05849850  0.95001483  1
  Mo  Mo906  1  0.18044817  0.22516517  0.11668150  1
  Mo  Mo907  1  0.18044817  0.22516517  0.28334817  1
  Mo  Mo908  1  0.18044817  0.22516517  0.45001483  1
  Mo  Mo909  1  0.18044817  0.22516517  0.61668150  1
  Mo  Mo910  1  0.18044817  0.22516517  0.78334817  1
  Mo  Mo911  1  0.18044817  0.22516517  0.95001483  1
  Mo  Mo912  1  0.18044817  0.39183183  0.11668150  1
  Mo  Mo913  1  0.18044817  0.39183183  0.28334817  1
  Mo  Mo914  1  0.18044817  0.39183183  0.45001483  1
  Mo  Mo915  1  0.18044817  0.39183183  0.61668150  1
  Mo  Mo916  1  0.18044817  0.39183183  0.78334817  1
  Mo  Mo917  1  0.18044817  0.39183183  0.95001483  1
  Mo  Mo918  1  0.18044817  0.55849850  0.11668150  1
  Mo  Mo919  1  0.18044817  0.55849850  0.28334817  1
  Mo  Mo920  1  0.18044817  0.55849850  0.45001483  1
  Mo  Mo921  1  0.18044817  0.55849850  0.61668150  1
  Mo  Mo922  1  0.18044817  0.55849850  0.78334817  1
  Mo  Mo923  1  0.18044817  0.55849850  0.95001483  1
  Mo  Mo924  1  0.18044817  0.72516517  0.11668150  1
  Mo  Mo925  1  0.18044817  0.72516517  0.28334817  1
  Mo  Mo926  1  0.18044817  0.72516517  0.45001483  1
  Mo  Mo927  1  0.18044817  0.72516517  0.61668150  1
  Mo  Mo928  1  0.18044817  0.72516517  0.78334817  1
  Mo  Mo929  1  0.18044817  0.72516517  0.95001483  1
  Mo  Mo930  1  0.18044817  0.89183183  0.11668150  1
  Mo  Mo931  1  0.18044817  0.89183183  0.28334817  1
  Mo  Mo932  1  0.18044817  0.89183183  0.45001483  1
  Mo  Mo933  1  0.18044817  0.89183183  0.61668150  1
  Mo  Mo934  1  0.18044817  0.89183183  0.78334817  1
  Mo  Mo935  1  0.18044817  0.89183183  0.95001483  1
  Mo  Mo936  1  0.34711483  0.05849850  0.11668150  1
  Mo  Mo937  1  0.34711483  0.05849850  0.28334817  1
  Mo  Mo938  1  0.34711483  0.05849850  0.45001483  1
  Mo  Mo939  1  0.34711483  0.05849850  0.61668150  1
  Mo  Mo940  1  0.34711483  0.05849850  0.78334817  1
  Mo  Mo941  1  0.34711483  0.05849850  0.95001483  1
  Mo  Mo942  1  0.34711483  0.22516517  0.11668150  1
  Mo  Mo943  1  0.34711483  0.22516517  0.28334817  1
  Mo  Mo944  1  0.34711483  0.22516517  0.45001483  1
  Mo  Mo945  1  0.34711483  0.22516517  0.61668150  1
  Mo  Mo946  1  0.34711483  0.22516517  0.78334817  1
  Mo  Mo947  1  0.34711483  0.22516517  0.95001483  1
  Mo  Mo948  1  0.34711483  0.39183183  0.11668150  1
  Mo  Mo949  1  0.34711483  0.39183183  0.28334817  1
  Mo  Mo950  1  0.34711483  0.39183183  0.45001483  1
  Mo  Mo951  1  0.34711483  0.39183183  0.61668150  1
  Mo  Mo952  1  0.34711483  0.39183183  0.78334817  1
  Mo  Mo953  1  0.34711483  0.39183183  0.95001483  1
  Mo  Mo954  1  0.34711483  0.55849850  0.11668150  1
  Mo  Mo955  1  0.34711483  0.55849850  0.28334817  1
  Mo  Mo956  1  0.34711483  0.55849850  0.45001483  1
  Mo  Mo957  1  0.34711483  0.55849850  0.61668150  1
  Mo  Mo958  1  0.34711483  0.55849850  0.78334817  1
  Mo  Mo959  1  0.34711483  0.55849850  0.95001483  1
  Mo  Mo960  1  0.34711483  0.72516517  0.11668150  1
  Mo  Mo961  1  0.34711483  0.72516517  0.28334817  1
  Mo  Mo962  1  0.34711483  0.72516517  0.45001483  1
  Mo  Mo963  1  0.34711483  0.72516517  0.61668150  1
  Mo  Mo964  1  0.34711483  0.72516517  0.78334817  1
  Mo  Mo965  1  0.34711483  0.72516517  0.95001483  1
  Mo  Mo966  1  0.34711483  0.89183183  0.11668150  1
  Mo  Mo967  1  0.34711483  0.89183183  0.28334817  1
  Mo  Mo968  1  0.34711483  0.89183183  0.45001483  1
  Mo  Mo969  1  0.34711483  0.89183183  0.61668150  1
  Mo  Mo970  1  0.34711483  0.89183183  0.78334817  1
  Mo  Mo971  1  0.34711483  0.89183183  0.95001483  1
  Mo  Mo972  1  0.51378150  0.05849850  0.11668150  1
  Mo  Mo973  1  0.51378150  0.05849850  0.28334817  1
  Mo  Mo974  1  0.51378150  0.05849850  0.45001483  1
  Mo  Mo975  1  0.51378150  0.05849850  0.61668150  1
  Mo  Mo976  1  0.51378150  0.05849850  0.78334817  1
  Mo  Mo977  1  0.51378150  0.05849850  0.95001483  1
  Mo  Mo978  1  0.51378150  0.22516517  0.11668150  1
  Mo  Mo979  1  0.51378150  0.22516517  0.28334817  1
  Mo  Mo980  1  0.51378150  0.22516517  0.45001483  1
  Mo  Mo981  1  0.51378150  0.22516517  0.61668150  1
  Mo  Mo982  1  0.51378150  0.22516517  0.78334817  1
  Mo  Mo983  1  0.51378150  0.22516517  0.95001483  1
  Mo  Mo984  1  0.51378150  0.39183183  0.11668150  1
  Mo  Mo985  1  0.51378150  0.39183183  0.28334817  1
  Mo  Mo986  1  0.51378150  0.39183183  0.45001483  1
  Mo  Mo987  1  0.51378150  0.39183183  0.61668150  1
  Mo  Mo988  1  0.51378150  0.39183183  0.78334817  1
  Mo  Mo989  1  0.51378150  0.39183183  0.95001483  1
  Mo  Mo990  1  0.51378150  0.55849850  0.11668150  1
  Mo  Mo991  1  0.51378150  0.55849850  0.28334817  1
  Mo  Mo992  1  0.51378150  0.55849850  0.45001483  1
  Mo  Mo993  1  0.51378150  0.55849850  0.61668150  1
  Mo  Mo994  1  0.51378150  0.55849850  0.78334817  1
  Mo  Mo995  1  0.51378150  0.55849850  0.95001483  1
  Mo  Mo996  1  0.51378150  0.72516517  0.11668150  1
  Mo  Mo997  1  0.51378150  0.72516517  0.28334817  1
  Mo  Mo998  1  0.51378150  0.72516517  0.45001483  1
  Mo  Mo999  1  0.51378150  0.72516517  0.61668150  1
  Mo  Mo1000  1  0.51378150  0.72516517  0.78334817  1
  Mo  Mo1001  1  0.51378150  0.72516517  0.95001483  1
  Mo  Mo1002  1  0.51378150  0.89183183  0.11668150  1
  Mo  Mo1003  1  0.51378150  0.89183183  0.28334817  1
  Mo  Mo1004  1  0.51378150  0.89183183  0.45001483  1
  Mo  Mo1005  1  0.51378150  0.89183183  0.61668150  1
  Mo  Mo1006  1  0.51378150  0.89183183  0.78334817  1
  Mo  Mo1007  1  0.51378150  0.89183183  0.95001483  1
  Mo  Mo1008  1  0.68044817  0.05849850  0.11668150  1
  Mo  Mo1009  1  0.68044817  0.05849850  0.28334817  1
  Mo  Mo1010  1  0.68044817  0.05849850  0.45001483  1
  Mo  Mo1011  1  0.68044817  0.05849850  0.61668150  1
  Mo  Mo1012  1  0.68044817  0.05849850  0.78334817  1
  Mo  Mo1013  1  0.68044817  0.05849850  0.95001483  1
  Mo  Mo1014  1  0.68044817  0.22516517  0.11668150  1
  Mo  Mo1015  1  0.68044817  0.22516517  0.28334817  1
  Mo  Mo1016  1  0.68044817  0.22516517  0.45001483  1
  Mo  Mo1017  1  0.68044817  0.22516517  0.61668150  1
  Mo  Mo1018  1  0.68044817  0.22516517  0.78334817  1
  Mo  Mo1019  1  0.68044817  0.22516517  0.95001483  1
  Mo  Mo1020  1  0.68044817  0.39183183  0.11668150  1
  Mo  Mo1021  1  0.68044817  0.39183183  0.28334817  1
  Mo  Mo1022  1  0.68044817  0.39183183  0.45001483  1
  Mo  Mo1023  1  0.68044817  0.39183183  0.61668150  1
  Mo  Mo1024  1  0.68044817  0.39183183  0.78334817  1
  Mo  Mo1025  1  0.68044817  0.39183183  0.95001483  1
  Mo  Mo1026  1  0.68044817  0.55849850  0.11668150  1
  Mo  Mo1027  1  0.68044817  0.55849850  0.28334817  1
  Mo  Mo1028  1  0.68044817  0.55849850  0.45001483  1
  Mo  Mo1029  1  0.68044817  0.55849850  0.61668150  1
  Mo  Mo1030  1  0.68044817  0.55849850  0.78334817  1
  Mo  Mo1031  1  0.68044817  0.55849850  0.95001483  1
  Mo  Mo1032  1  0.68044817  0.72516517  0.11668150  1
  Mo  Mo1033  1  0.68044817  0.72516517  0.28334817  1
  Mo  Mo1034  1  0.68044817  0.72516517  0.45001483  1
  Mo  Mo1035  1  0.68044817  0.72516517  0.61668150  1
  Mo  Mo1036  1  0.68044817  0.72516517  0.78334817  1
  Mo  Mo1037  1  0.68044817  0.72516517  0.95001483  1
  Mo  Mo1038  1  0.68044817  0.89183183  0.11668150  1
  Mo  Mo1039  1  0.68044817  0.89183183  0.28334817  1
  Mo  Mo1040  1  0.68044817  0.89183183  0.45001483  1
  Mo  Mo1041  1  0.68044817  0.89183183  0.61668150  1
  Mo  Mo1042  1  0.68044817  0.89183183  0.78334817  1
  Mo  Mo1043  1  0.68044817  0.89183183  0.95001483  1
  Mo  Mo1044  1  0.84711483  0.05849850  0.11668150  1
  Mo  Mo1045  1  0.84711483  0.05849850  0.28334817  1
  Mo  Mo1046  1  0.84711483  0.05849850  0.45001483  1
  Mo  Mo1047  1  0.84711483  0.05849850  0.61668150  1
  Mo  Mo1048  1  0.84711483  0.05849850  0.78334817  1
  Mo  Mo1049  1  0.84711483  0.05849850  0.95001483  1
  Mo  Mo1050  1  0.84711483  0.22516517  0.11668150  1
  Mo  Mo1051  1  0.84711483  0.22516517  0.28334817  1
  Mo  Mo1052  1  0.84711483  0.22516517  0.45001483  1
  Mo  Mo1053  1  0.84711483  0.22516517  0.61668150  1
  Mo  Mo1054  1  0.84711483  0.22516517  0.78334817  1
  Mo  Mo1055  1  0.84711483  0.22516517  0.95001483  1
  Mo  Mo1056  1  0.84711483  0.39183183  0.11668150  1
  Mo  Mo1057  1  0.84711483  0.39183183  0.28334817  1
  Mo  Mo1058  1  0.84711483  0.39183183  0.45001483  1
  Mo  Mo1059  1  0.84711483  0.39183183  0.61668150  1
  Mo  Mo1060  1  0.84711483  0.39183183  0.78334817  1
  Mo  Mo1061  1  0.84711483  0.39183183  0.95001483  1
  Mo  Mo1062  1  0.84711483  0.55849850  0.11668150  1
  Mo  Mo1063  1  0.84711483  0.55849850  0.28334817  1
  Mo  Mo1064  1  0.84711483  0.55849850  0.45001483  1
  Mo  Mo1065  1  0.84711483  0.55849850  0.61668150  1
  Mo  Mo1066  1  0.84711483  0.55849850  0.78334817  1
  Mo  Mo1067  1  0.84711483  0.55849850  0.95001483  1
  Mo  Mo1068  1  0.84711483  0.72516517  0.11668150  1
  Mo  Mo1069  1  0.84711483  0.72516517  0.28334817  1
  Mo  Mo1070  1  0.84711483  0.72516517  0.45001483  1
  Mo  Mo1071  1  0.84711483  0.72516517  0.61668150  1
  Mo  Mo1072  1  0.84711483  0.72516517  0.78334817  1
  Mo  Mo1073  1  0.84711483  0.72516517  0.95001483  1
  Mo  Mo1074  1  0.84711483  0.89183183  0.11668150  1
  Mo  Mo1075  1  0.84711483  0.89183183  0.28334817  1
  Mo  Mo1076  1  0.84711483  0.89183183  0.45001483  1
  Mo  Mo1077  1  0.84711483  0.89183183  0.61668150  1
  Mo  Mo1078  1  0.84711483  0.89183183  0.78334817  1
  Mo  Mo1079  1  0.84711483  0.89183183  0.95001483  1
  O  O1080  1  0.12996017  0.02319383  0.09173717  1
  O  O1081  1  0.12996017  0.02319383  0.25840383  1
  O  O1082  1  0.12996017  0.02319383  0.42507050  1
  O  O1083  1  0.12996017  0.02319383  0.59173717  1
  O  O1084  1  0.12996017  0.02319383  0.75840383  1
  O  O1085  1  0.12996017  0.02319383  0.92507050  1
  O  O1086  1  0.12996017  0.18986050  0.09173717  1
  O  O1087  1  0.12996017  0.18986050  0.25840383  1
  O  O1088  1  0.12996017  0.18986050  0.42507050  1
  O  O1089  1  0.12996017  0.18986050  0.59173717  1
  O  O1090  1  0.12996017  0.18986050  0.75840383  1
  O  O1091  1  0.12996017  0.18986050  0.92507050  1
  O  O1092  1  0.12996017  0.35652717  0.09173717  1
  O  O1093  1  0.12996017  0.35652717  0.25840383  1
  O  O1094  1  0.12996017  0.35652717  0.42507050  1
  O  O1095  1  0.12996017  0.35652717  0.59173717  1
  O  O1096  1  0.12996017  0.35652717  0.75840383  1
  O  O1097  1  0.12996017  0.35652717  0.92507050  1
  O  O1098  1  0.12996017  0.52319383  0.09173717  1
  O  O1099  1  0.12996017  0.52319383  0.25840383  1
  O  O1100  1  0.12996017  0.52319383  0.42507050  1
  O  O1101  1  0.12996017  0.52319383  0.59173717  1
  O  O1102  1  0.12996017  0.52319383  0.75840383  1
  O  O1103  1  0.12996017  0.52319383  0.92507050  1
  O  O1104  1  0.12996017  0.68986050  0.09173717  1
  O  O1105  1  0.12996017  0.68986050  0.25840383  1
  O  O1106  1  0.12996017  0.68986050  0.42507050  1
  O  O1107  1  0.12996017  0.68986050  0.59173717  1
  O  O1108  1  0.12996017  0.68986050  0.75840383  1
  O  O1109  1  0.12996017  0.68986050  0.92507050  1
  O  O1110  1  0.12996017  0.85652717  0.09173717  1
  O  O1111  1  0.12996017  0.85652717  0.25840383  1
  O  O1112  1  0.12996017  0.85652717  0.42507050  1
  O  O1113  1  0.12996017  0.85652717  0.59173717  1
  O  O1114  1  0.12996017  0.85652717  0.75840383  1
  O  O1115  1  0.12996017  0.85652717  0.92507050  1
  O  O1116  1  0.29662683  0.02319383  0.09173717  1
  O  O1117  1  0.29662683  0.02319383  0.25840383  1
  O  O1118  1  0.29662683  0.02319383  0.42507050  1
  O  O1119  1  0.29662683  0.02319383  0.59173717  1
  O  O1120  1  0.29662683  0.02319383  0.75840383  1
  O  O1121  1  0.29662683  0.02319383  0.92507050  1
  O  O1122  1  0.29662683  0.18986050  0.09173717  1
  O  O1123  1  0.29662683  0.18986050  0.25840383  1
  O  O1124  1  0.29662683  0.18986050  0.42507050  1
  O  O1125  1  0.29662683  0.18986050  0.59173717  1
  O  O1126  1  0.29662683  0.18986050  0.75840383  1
  O  O1127  1  0.29662683  0.18986050  0.92507050  1
  O  O1128  1  0.29662683  0.35652717  0.09173717  1
  O  O1129  1  0.29662683  0.35652717  0.25840383  1
  O  O1130  1  0.29662683  0.35652717  0.42507050  1
  O  O1131  1  0.29662683  0.35652717  0.59173717  1
  O  O1132  1  0.29662683  0.35652717  0.75840383  1
  O  O1133  1  0.29662683  0.35652717  0.92507050  1
  O  O1134  1  0.29662683  0.52319383  0.09173717  1
  O  O1135  1  0.29662683  0.52319383  0.25840383  1
  O  O1136  1  0.29662683  0.52319383  0.42507050  1
  O  O1137  1  0.29662683  0.52319383  0.59173717  1
  O  O1138  1  0.29662683  0.52319383  0.75840383  1
  O  O1139  1  0.29662683  0.52319383  0.92507050  1
  O  O1140  1  0.29662683  0.68986050  0.09173717  1
  O  O1141  1  0.29662683  0.68986050  0.25840383  1
  O  O1142  1  0.29662683  0.68986050  0.42507050  1
  O  O1143  1  0.29662683  0.68986050  0.59173717  1
  O  O1144  1  0.29662683  0.68986050  0.75840383  1
  O  O1145  1  0.29662683  0.68986050  0.92507050  1
  O  O1146  1  0.29662683  0.85652717  0.09173717  1
  O  O1147  1  0.29662683  0.85652717  0.25840383  1
  O  O1148  1  0.29662683  0.85652717  0.42507050  1
  O  O1149  1  0.29662683  0.85652717  0.59173717  1
  O  O1150  1  0.29662683  0.85652717  0.75840383  1
  O  O1151  1  0.29662683  0.85652717  0.92507050  1
  O  O1152  1  0.46329350  0.02319383  0.09173717  1
  O  O1153  1  0.46329350  0.02319383  0.25840383  1
  O  O1154  1  0.46329350  0.02319383  0.42507050  1
  O  O1155  1  0.46329350  0.02319383  0.59173717  1
  O  O1156  1  0.46329350  0.02319383  0.75840383  1
  O  O1157  1  0.46329350  0.02319383  0.92507050  1
  O  O1158  1  0.46329350  0.18986050  0.09173717  1
  O  O1159  1  0.46329350  0.18986050  0.25840383  1
  O  O1160  1  0.46329350  0.18986050  0.42507050  1
  O  O1161  1  0.46329350  0.18986050  0.59173717  1
  O  O1162  1  0.46329350  0.18986050  0.75840383  1
  O  O1163  1  0.46329350  0.18986050  0.92507050  1
  O  O1164  1  0.46329350  0.35652717  0.09173717  1
  O  O1165  1  0.46329350  0.35652717  0.25840383  1
  O  O1166  1  0.46329350  0.35652717  0.42507050  1
  O  O1167  1  0.46329350  0.35652717  0.59173717  1
  O  O1168  1  0.46329350  0.35652717  0.75840383  1
  O  O1169  1  0.46329350  0.35652717  0.92507050  1
  O  O1170  1  0.46329350  0.52319383  0.09173717  1
  O  O1171  1  0.46329350  0.52319383  0.25840383  1
  O  O1172  1  0.46329350  0.52319383  0.42507050  1
  O  O1173  1  0.46329350  0.52319383  0.59173717  1
  O  O1174  1  0.46329350  0.52319383  0.75840383  1
  O  O1175  1  0.46329350  0.52319383  0.92507050  1
  O  O1176  1  0.46329350  0.68986050  0.09173717  1
  O  O1177  1  0.46329350  0.68986050  0.25840383  1
  O  O1178  1  0.46329350  0.68986050  0.42507050  1
  O  O1179  1  0.46329350  0.68986050  0.59173717  1
  O  O1180  1  0.46329350  0.68986050  0.75840383  1
  O  O1181  1  0.46329350  0.68986050  0.92507050  1
  O  O1182  1  0.46329350  0.85652717  0.09173717  1
  O  O1183  1  0.46329350  0.85652717  0.25840383  1
  O  O1184  1  0.46329350  0.85652717  0.42507050  1
  O  O1185  1  0.46329350  0.85652717  0.59173717  1
  O  O1186  1  0.46329350  0.85652717  0.75840383  1
  O  O1187  1  0.46329350  0.85652717  0.92507050  1
  O  O1188  1  0.62996017  0.02319383  0.09173717  1
  O  O1189  1  0.62996017  0.02319383  0.25840383  1
  O  O1190  1  0.62996017  0.02319383  0.42507050  1
  O  O1191  1  0.62996017  0.02319383  0.59173717  1
  O  O1192  1  0.62996017  0.02319383  0.75840383  1
  O  O1193  1  0.62996017  0.02319383  0.92507050  1
  O  O1194  1  0.62996017  0.18986050  0.09173717  1
  O  O1195  1  0.62996017  0.18986050  0.25840383  1
  O  O1196  1  0.62996017  0.18986050  0.42507050  1
  O  O1197  1  0.62996017  0.18986050  0.59173717  1
  O  O1198  1  0.62996017  0.18986050  0.75840383  1
  O  O1199  1  0.62996017  0.18986050  0.92507050  1
  O  O1200  1  0.62996017  0.35652717  0.09173717  1
  O  O1201  1  0.62996017  0.35652717  0.25840383  1
  O  O1202  1  0.62996017  0.35652717  0.42507050  1
  O  O1203  1  0.62996017  0.35652717  0.59173717  1
  O  O1204  1  0.62996017  0.35652717  0.75840383  1
  O  O1205  1  0.62996017  0.35652717  0.92507050  1
  O  O1206  1  0.62996017  0.52319383  0.09173717  1
  O  O1207  1  0.62996017  0.52319383  0.25840383  1
  O  O1208  1  0.62996017  0.52319383  0.42507050  1
  O  O1209  1  0.62996017  0.52319383  0.59173717  1
  O  O1210  1  0.62996017  0.52319383  0.75840383  1
  O  O1211  1  0.62996017  0.52319383  0.92507050  1
  O  O1212  1  0.62996017  0.68986050  0.09173717  1
  O  O1213  1  0.62996017  0.68986050  0.25840383  1
  O  O1214  1  0.62996017  0.68986050  0.42507050  1
  O  O1215  1  0.62996017  0.68986050  0.59173717  1
  O  O1216  1  0.62996017  0.68986050  0.75840383  1
  O  O1217  1  0.62996017  0.68986050  0.92507050  1
  O  O1218  1  0.62996017  0.85652717  0.09173717  1
  O  O1219  1  0.62996017  0.85652717  0.25840383  1
  O  O1220  1  0.62996017  0.85652717  0.42507050  1
  O  O1221  1  0.62996017  0.85652717  0.59173717  1
  O  O1222  1  0.62996017  0.85652717  0.75840383  1
  O  O1223  1  0.62996017  0.85652717  0.92507050  1
  O  O1224  1  0.79662683  0.02319383  0.09173717  1
  O  O1225  1  0.79662683  0.02319383  0.25840383  1
  O  O1226  1  0.79662683  0.02319383  0.42507050  1
  O  O1227  1  0.79662683  0.02319383  0.59173717  1
  O  O1228  1  0.79662683  0.02319383  0.75840383  1
  O  O1229  1  0.79662683  0.02319383  0.92507050  1
  O  O1230  1  0.79662683  0.18986050  0.09173717  1
  O  O1231  1  0.79662683  0.18986050  0.25840383  1
  O  O1232  1  0.79662683  0.18986050  0.42507050  1
  O  O1233  1  0.79662683  0.18986050  0.59173717  1
  O  O1234  1  0.79662683  0.18986050  0.75840383  1
  O  O1235  1  0.79662683  0.18986050  0.92507050  1
  O  O1236  1  0.79662683  0.35652717  0.09173717  1
  O  O1237  1  0.79662683  0.35652717  0.25840383  1
  O  O1238  1  0.79662683  0.35652717  0.42507050  1
  O  O1239  1  0.79662683  0.35652717  0.59173717  1
  O  O1240  1  0.79662683  0.35652717  0.75840383  1
  O  O1241  1  0.79662683  0.35652717  0.92507050  1
  O  O1242  1  0.79662683  0.52319383  0.09173717  1
  O  O1243  1  0.79662683  0.52319383  0.25840383  1
  O  O1244  1  0.79662683  0.52319383  0.42507050  1
  O  O1245  1  0.79662683  0.52319383  0.59173717  1
  O  O1246  1  0.79662683  0.52319383  0.75840383  1
  O  O1247  1  0.79662683  0.52319383  0.92507050  1
  O  O1248  1  0.79662683  0.68986050  0.09173717  1
  O  O1249  1  0.79662683  0.68986050  0.25840383  1
  O  O1250  1  0.79662683  0.68986050  0.42507050  1
  O  O1251  1  0.79662683  0.68986050  0.59173717  1
  O  O1252  1  0.79662683  0.68986050  0.75840383  1
  O  O1253  1  0.79662683  0.68986050  0.92507050  1
  O  O1254  1  0.79662683  0.85652717  0.09173717  1
  O  O1255  1  0.79662683  0.85652717  0.25840383  1
  O  O1256  1  0.79662683  0.85652717  0.42507050  1
  O  O1257  1  0.79662683  0.85652717  0.59173717  1
  O  O1258  1  0.79662683  0.85652717  0.75840383  1
  O  O1259  1  0.79662683  0.85652717  0.92507050  1
  O  O1260  1  0.96329350  0.02319383  0.09173717  1
  O  O1261  1  0.96329350  0.02319383  0.25840383  1
  O  O1262  1  0.96329350  0.02319383  0.42507050  1
  O  O1263  1  0.96329350  0.02319383  0.59173717  1
  O  O1264  1  0.96329350  0.02319383  0.75840383  1
  O  O1265  1  0.96329350  0.02319383  0.92507050  1
  O  O1266  1  0.96329350  0.18986050  0.09173717  1
  O  O1267  1  0.96329350  0.18986050  0.25840383  1
  O  O1268  1  0.96329350  0.18986050  0.42507050  1
  O  O1269  1  0.96329350  0.18986050  0.59173717  1
  O  O1270  1  0.96329350  0.18986050  0.75840383  1
  O  O1271  1  0.96329350  0.18986050  0.92507050  1
  O  O1272  1  0.96329350  0.35652717  0.09173717  1
  O  O1273  1  0.96329350  0.35652717  0.25840383  1
  O  O1274  1  0.96329350  0.35652717  0.42507050  1
  O  O1275  1  0.96329350  0.35652717  0.59173717  1
  O  O1276  1  0.96329350  0.35652717  0.75840383  1
  O  O1277  1  0.96329350  0.35652717  0.92507050  1
  O  O1278  1  0.96329350  0.52319383  0.09173717  1
  O  O1279  1  0.96329350  0.52319383  0.25840383  1
  O  O1280  1  0.96329350  0.52319383  0.42507050  1
  O  O1281  1  0.96329350  0.52319383  0.59173717  1
  O  O1282  1  0.96329350  0.52319383  0.75840383  1
  O  O1283  1  0.96329350  0.52319383  0.92507050  1
  O  O1284  1  0.96329350  0.68986050  0.09173717  1
  O  O1285  1  0.96329350  0.68986050  0.25840383  1
  O  O1286  1  0.96329350  0.68986050  0.42507050  1
  O  O1287  1  0.96329350  0.68986050  0.59173717  1
  O  O1288  1  0.96329350  0.68986050  0.75840383  1
  O  O1289  1  0.96329350  0.68986050  0.92507050  1
  O  O1290  1  0.96329350  0.85652717  0.09173717  1
  O  O1291  1  0.96329350  0.85652717  0.25840383  1
  O  O1292  1  0.96329350  0.85652717  0.42507050  1
  O  O1293  1  0.96329350  0.85652717  0.59173717  1
  O  O1294  1  0.96329350  0.85652717  0.75840383  1
  O  O1295  1  0.96329350  0.85652717  0.92507050  1
  O  O1296  1  0.13302950  0.13206933  0.02541717  1
  O  O1297  1  0.13302950  0.13206933  0.19208383  1
  O  O1298  1  0.13302950  0.13206933  0.35875050  1
  O  O1299  1  0.13302950  0.13206933  0.52541717  1
  O  O1300  1  0.13302950  0.13206933  0.69208383  1
  O  O1301  1  0.13302950  0.13206933  0.85875050  1
  O  O1302  1  0.13302950  0.29873600  0.02541717  1
  O  O1303  1  0.13302950  0.29873600  0.19208383  1
  O  O1304  1  0.13302950  0.29873600  0.35875050  1
  O  O1305  1  0.13302950  0.29873600  0.52541717  1
  O  O1306  1  0.13302950  0.29873600  0.69208383  1
  O  O1307  1  0.13302950  0.29873600  0.85875050  1
  O  O1308  1  0.13302950  0.46540267  0.02541717  1
  O  O1309  1  0.13302950  0.46540267  0.19208383  1
  O  O1310  1  0.13302950  0.46540267  0.35875050  1
  O  O1311  1  0.13302950  0.46540267  0.52541717  1
  O  O1312  1  0.13302950  0.46540267  0.69208383  1
  O  O1313  1  0.13302950  0.46540267  0.85875050  1
  O  O1314  1  0.13302950  0.63206933  0.02541717  1
  O  O1315  1  0.13302950  0.63206933  0.19208383  1
  O  O1316  1  0.13302950  0.63206933  0.35875050  1
  O  O1317  1  0.13302950  0.63206933  0.52541717  1
  O  O1318  1  0.13302950  0.63206933  0.69208383  1
  O  O1319  1  0.13302950  0.63206933  0.85875050  1
  O  O1320  1  0.13302950  0.79873600  0.02541717  1
  O  O1321  1  0.13302950  0.79873600  0.19208383  1
  O  O1322  1  0.13302950  0.79873600  0.35875050  1
  O  O1323  1  0.13302950  0.79873600  0.52541717  1
  O  O1324  1  0.13302950  0.79873600  0.69208383  1
  O  O1325  1  0.13302950  0.79873600  0.85875050  1
  O  O1326  1  0.13302950  0.96540267  0.02541717  1
  O  O1327  1  0.13302950  0.96540267  0.19208383  1
  O  O1328  1  0.13302950  0.96540267  0.35875050  1
  O  O1329  1  0.13302950  0.96540267  0.52541717  1
  O  O1330  1  0.13302950  0.96540267  0.69208383  1
  O  O1331  1  0.13302950  0.96540267  0.85875050  1
  O  O1332  1  0.29969617  0.13206933  0.02541717  1
  O  O1333  1  0.29969617  0.13206933  0.19208383  1
  O  O1334  1  0.29969617  0.13206933  0.35875050  1
  O  O1335  1  0.29969617  0.13206933  0.52541717  1
  O  O1336  1  0.29969617  0.13206933  0.69208383  1
  O  O1337  1  0.29969617  0.13206933  0.85875050  1
  O  O1338  1  0.29969617  0.29873600  0.02541717  1
  O  O1339  1  0.29969617  0.29873600  0.19208383  1
  O  O1340  1  0.29969617  0.29873600  0.35875050  1
  O  O1341  1  0.29969617  0.29873600  0.52541717  1
  O  O1342  1  0.29969617  0.29873600  0.69208383  1
  O  O1343  1  0.29969617  0.29873600  0.85875050  1
  O  O1344  1  0.29969617  0.46540267  0.02541717  1
  O  O1345  1  0.29969617  0.46540267  0.19208383  1
  O  O1346  1  0.29969617  0.46540267  0.35875050  1
  O  O1347  1  0.29969617  0.46540267  0.52541717  1
  O  O1348  1  0.29969617  0.46540267  0.69208383  1
  O  O1349  1  0.29969617  0.46540267  0.85875050  1
  O  O1350  1  0.29969617  0.63206933  0.02541717  1
  O  O1351  1  0.29969617  0.63206933  0.19208383  1
  O  O1352  1  0.29969617  0.63206933  0.35875050  1
  O  O1353  1  0.29969617  0.63206933  0.52541717  1
  O  O1354  1  0.29969617  0.63206933  0.69208383  1
  O  O1355  1  0.29969617  0.63206933  0.85875050  1
  O  O1356  1  0.29969617  0.79873600  0.02541717  1
  O  O1357  1  0.29969617  0.79873600  0.19208383  1
  O  O1358  1  0.29969617  0.79873600  0.35875050  1
  O  O1359  1  0.29969617  0.79873600  0.52541717  1
  O  O1360  1  0.29969617  0.79873600  0.69208383  1
  O  O1361  1  0.29969617  0.79873600  0.85875050  1
  O  O1362  1  0.29969617  0.96540267  0.02541717  1
  O  O1363  1  0.29969617  0.96540267  0.19208383  1
  O  O1364  1  0.29969617  0.96540267  0.35875050  1
  O  O1365  1  0.29969617  0.96540267  0.52541717  1
  O  O1366  1  0.29969617  0.96540267  0.69208383  1
  O  O1367  1  0.29969617  0.96540267  0.85875050  1
  O  O1368  1  0.46636283  0.13206933  0.02541717  1
  O  O1369  1  0.46636283  0.13206933  0.19208383  1
  O  O1370  1  0.46636283  0.13206933  0.35875050  1
  O  O1371  1  0.46636283  0.13206933  0.52541717  1
  O  O1372  1  0.46636283  0.13206933  0.69208383  1
  O  O1373  1  0.46636283  0.13206933  0.85875050  1
  O  O1374  1  0.46636283  0.29873600  0.02541717  1
  O  O1375  1  0.46636283  0.29873600  0.19208383  1
  O  O1376  1  0.46636283  0.29873600  0.35875050  1
  O  O1377  1  0.46636283  0.29873600  0.52541717  1
  O  O1378  1  0.46636283  0.29873600  0.69208383  1
  O  O1379  1  0.46636283  0.29873600  0.85875050  1
  O  O1380  1  0.46636283  0.46540267  0.02541717  1
  O  O1381  1  0.46636283  0.46540267  0.19208383  1
  O  O1382  1  0.46636283  0.46540267  0.35875050  1
  O  O1383  1  0.46636283  0.46540267  0.52541717  1
  O  O1384  1  0.46636283  0.46540267  0.69208383  1
  O  O1385  1  0.46636283  0.46540267  0.85875050  1
  O  O1386  1  0.46636283  0.63206933  0.02541717  1
  O  O1387  1  0.46636283  0.63206933  0.19208383  1
  O  O1388  1  0.46636283  0.63206933  0.35875050  1
  O  O1389  1  0.46636283  0.63206933  0.52541717  1
  O  O1390  1  0.46636283  0.63206933  0.69208383  1
  O  O1391  1  0.46636283  0.63206933  0.85875050  1
  O  O1392  1  0.46636283  0.79873600  0.02541717  1
  O  O1393  1  0.46636283  0.79873600  0.19208383  1
  O  O1394  1  0.46636283  0.79873600  0.35875050  1
  O  O1395  1  0.46636283  0.79873600  0.52541717  1
  O  O1396  1  0.46636283  0.79873600  0.69208383  1
  O  O1397  1  0.46636283  0.79873600  0.85875050  1
  O  O1398  1  0.46636283  0.96540267  0.02541717  1
  O  O1399  1  0.46636283  0.96540267  0.19208383  1
  O  O1400  1  0.46636283  0.96540267  0.35875050  1
  O  O1401  1  0.46636283  0.96540267  0.52541717  1
  O  O1402  1  0.46636283  0.96540267  0.69208383  1
  O  O1403  1  0.46636283  0.96540267  0.85875050  1
  O  O1404  1  0.63302950  0.13206933  0.02541717  1
  O  O1405  1  0.63302950  0.13206933  0.19208383  1
  O  O1406  1  0.63302950  0.13206933  0.35875050  1
  O  O1407  1  0.63302950  0.13206933  0.52541717  1
  O  O1408  1  0.63302950  0.13206933  0.69208383  1
  O  O1409  1  0.63302950  0.13206933  0.85875050  1
  O  O1410  1  0.63302950  0.29873600  0.02541717  1
  O  O1411  1  0.63302950  0.29873600  0.19208383  1
  O  O1412  1  0.63302950  0.29873600  0.35875050  1
  O  O1413  1  0.63302950  0.29873600  0.52541717  1
  O  O1414  1  0.63302950  0.29873600  0.69208383  1
  O  O1415  1  0.63302950  0.29873600  0.85875050  1
  O  O1416  1  0.63302950  0.46540267  0.02541717  1
  O  O1417  1  0.63302950  0.46540267  0.19208383  1
  O  O1418  1  0.63302950  0.46540267  0.35875050  1
  O  O1419  1  0.63302950  0.46540267  0.52541717  1
  O  O1420  1  0.63302950  0.46540267  0.69208383  1
  O  O1421  1  0.63302950  0.46540267  0.85875050  1
  O  O1422  1  0.63302950  0.63206933  0.02541717  1
  O  O1423  1  0.63302950  0.63206933  0.19208383  1
  O  O1424  1  0.63302950  0.63206933  0.35875050  1
  O  O1425  1  0.63302950  0.63206933  0.52541717  1
  O  O1426  1  0.63302950  0.63206933  0.69208383  1
  O  O1427  1  0.63302950  0.63206933  0.85875050  1
  O  O1428  1  0.63302950  0.79873600  0.02541717  1
  O  O1429  1  0.63302950  0.79873600  0.19208383  1
  O  O1430  1  0.63302950  0.79873600  0.35875050  1
  O  O1431  1  0.63302950  0.79873600  0.52541717  1
  O  O1432  1  0.63302950  0.79873600  0.69208383  1
  O  O1433  1  0.63302950  0.79873600  0.85875050  1
  O  O1434  1  0.63302950  0.96540267  0.02541717  1
  O  O1435  1  0.63302950  0.96540267  0.19208383  1
  O  O1436  1  0.63302950  0.96540267  0.35875050  1
  O  O1437  1  0.63302950  0.96540267  0.52541717  1
  O  O1438  1  0.63302950  0.96540267  0.69208383  1
  O  O1439  1  0.63302950  0.96540267  0.85875050  1
  O  O1440  1  0.79969617  0.13206933  0.02541717  1
  O  O1441  1  0.79969617  0.13206933  0.19208383  1
  O  O1442  1  0.79969617  0.13206933  0.35875050  1
  O  O1443  1  0.79969617  0.13206933  0.52541717  1
  O  O1444  1  0.79969617  0.13206933  0.69208383  1
  O  O1445  1  0.79969617  0.13206933  0.85875050  1
  O  O1446  1  0.79969617  0.29873600  0.02541717  1
  O  O1447  1  0.79969617  0.29873600  0.19208383  1
  O  O1448  1  0.79969617  0.29873600  0.35875050  1
  O  O1449  1  0.79969617  0.29873600  0.52541717  1
  O  O1450  1  0.79969617  0.29873600  0.69208383  1
  O  O1451  1  0.79969617  0.29873600  0.85875050  1
  O  O1452  1  0.79969617  0.46540267  0.02541717  1
  O  O1453  1  0.79969617  0.46540267  0.19208383  1
  O  O1454  1  0.79969617  0.46540267  0.35875050  1
  O  O1455  1  0.79969617  0.46540267  0.52541717  1
  O  O1456  1  0.79969617  0.46540267  0.69208383  1
  O  O1457  1  0.79969617  0.46540267  0.85875050  1
  O  O1458  1  0.79969617  0.63206933  0.02541717  1
  O  O1459  1  0.79969617  0.63206933  0.19208383  1
  O  O1460  1  0.79969617  0.63206933  0.35875050  1
  O  O1461  1  0.79969617  0.63206933  0.52541717  1
  O  O1462  1  0.79969617  0.63206933  0.69208383  1
  O  O1463  1  0.79969617  0.63206933  0.85875050  1
  O  O1464  1  0.79969617  0.79873600  0.02541717  1
  O  O1465  1  0.79969617  0.79873600  0.19208383  1
  O  O1466  1  0.79969617  0.79873600  0.35875050  1
  O  O1467  1  0.79969617  0.79873600  0.52541717  1
  O  O1468  1  0.79969617  0.79873600  0.69208383  1
  O  O1469  1  0.79969617  0.79873600  0.85875050  1
  O  O1470  1  0.79969617  0.96540267  0.02541717  1
  O  O1471  1  0.79969617  0.96540267  0.19208383  1
  O  O1472  1  0.79969617  0.96540267  0.35875050  1
  O  O1473  1  0.79969617  0.96540267  0.52541717  1
  O  O1474  1  0.79969617  0.96540267  0.69208383  1
  O  O1475  1  0.79969617  0.96540267  0.85875050  1
  O  O1476  1  0.96636283  0.13206933  0.02541717  1
  O  O1477  1  0.96636283  0.13206933  0.19208383  1
  O  O1478  1  0.96636283  0.13206933  0.35875050  1
  O  O1479  1  0.96636283  0.13206933  0.52541717  1
  O  O1480  1  0.96636283  0.13206933  0.69208383  1
  O  O1481  1  0.96636283  0.13206933  0.85875050  1
  O  O1482  1  0.96636283  0.29873600  0.02541717  1
  O  O1483  1  0.96636283  0.29873600  0.19208383  1
  O  O1484  1  0.96636283  0.29873600  0.35875050  1
  O  O1485  1  0.96636283  0.29873600  0.52541717  1
  O  O1486  1  0.96636283  0.29873600  0.69208383  1
  O  O1487  1  0.96636283  0.29873600  0.85875050  1
  O  O1488  1  0.96636283  0.46540267  0.02541717  1
  O  O1489  1  0.96636283  0.46540267  0.19208383  1
  O  O1490  1  0.96636283  0.46540267  0.35875050  1
  O  O1491  1  0.96636283  0.46540267  0.52541717  1
  O  O1492  1  0.96636283  0.46540267  0.69208383  1
  O  O1493  1  0.96636283  0.46540267  0.85875050  1
  O  O1494  1  0.96636283  0.63206933  0.02541717  1
  O  O1495  1  0.96636283  0.63206933  0.19208383  1
  O  O1496  1  0.96636283  0.63206933  0.35875050  1
  O  O1497  1  0.96636283  0.63206933  0.52541717  1
  O  O1498  1  0.96636283  0.63206933  0.69208383  1
  O  O1499  1  0.96636283  0.63206933  0.85875050  1
  O  O1500  1  0.96636283  0.79873600  0.02541717  1
  O  O1501  1  0.96636283  0.79873600  0.19208383  1
  O  O1502  1  0.96636283  0.79873600  0.35875050  1
  O  O1503  1  0.96636283  0.79873600  0.52541717  1
  O  O1504  1  0.96636283  0.79873600  0.69208383  1
  O  O1505  1  0.96636283  0.79873600  0.85875050  1
  O  O1506  1  0.96636283  0.96540267  0.02541717  1
  O  O1507  1  0.96636283  0.96540267  0.19208383  1
  O  O1508  1  0.96636283  0.96540267  0.35875050  1
  O  O1509  1  0.96636283  0.96540267  0.52541717  1
  O  O1510  1  0.96636283  0.96540267  0.69208383  1
  O  O1511  1  0.96636283  0.96540267  0.85875050  1
  O  O1512  1  0.11536567  0.15575367  0.13996017  1
  O  O1513  1  0.11536567  0.15575367  0.30662683  1
  O  O1514  1  0.11536567  0.15575367  0.47329350  1
  O  O1515  1  0.11536567  0.15575367  0.63996017  1
  O  O1516  1  0.11536567  0.15575367  0.80662683  1
  O  O1517  1  0.11536567  0.15575367  0.97329350  1
  O  O1518  1  0.11536567  0.32242033  0.13996017  1
  O  O1519  1  0.11536567  0.32242033  0.30662683  1
  O  O1520  1  0.11536567  0.32242033  0.47329350  1
  O  O1521  1  0.11536567  0.32242033  0.63996017  1
  O  O1522  1  0.11536567  0.32242033  0.80662683  1
  O  O1523  1  0.11536567  0.32242033  0.97329350  1
  O  O1524  1  0.11536567  0.48908700  0.13996017  1
  O  O1525  1  0.11536567  0.48908700  0.30662683  1
  O  O1526  1  0.11536567  0.48908700  0.47329350  1
  O  O1527  1  0.11536567  0.48908700  0.63996017  1
  O  O1528  1  0.11536567  0.48908700  0.80662683  1
  O  O1529  1  0.11536567  0.48908700  0.97329350  1
  O  O1530  1  0.11536567  0.65575367  0.13996017  1
  O  O1531  1  0.11536567  0.65575367  0.30662683  1
  O  O1532  1  0.11536567  0.65575367  0.47329350  1
  O  O1533  1  0.11536567  0.65575367  0.63996017  1
  O  O1534  1  0.11536567  0.65575367  0.80662683  1
  O  O1535  1  0.11536567  0.65575367  0.97329350  1
  O  O1536  1  0.11536567  0.82242033  0.13996017  1
  O  O1537  1  0.11536567  0.82242033  0.30662683  1
  O  O1538  1  0.11536567  0.82242033  0.47329350  1
  O  O1539  1  0.11536567  0.82242033  0.63996017  1
  O  O1540  1  0.11536567  0.82242033  0.80662683  1
  O  O1541  1  0.11536567  0.82242033  0.97329350  1
  O  O1542  1  0.11536567  0.98908700  0.13996017  1
  O  O1543  1  0.11536567  0.98908700  0.30662683  1
  O  O1544  1  0.11536567  0.98908700  0.47329350  1
  O  O1545  1  0.11536567  0.98908700  0.63996017  1
  O  O1546  1  0.11536567  0.98908700  0.80662683  1
  O  O1547  1  0.11536567  0.98908700  0.97329350  1
  O  O1548  1  0.28203233  0.15575367  0.13996017  1
  O  O1549  1  0.28203233  0.15575367  0.30662683  1
  O  O1550  1  0.28203233  0.15575367  0.47329350  1
  O  O1551  1  0.28203233  0.15575367  0.63996017  1
  O  O1552  1  0.28203233  0.15575367  0.80662683  1
  O  O1553  1  0.28203233  0.15575367  0.97329350  1
  O  O1554  1  0.28203233  0.32242033  0.13996017  1
  O  O1555  1  0.28203233  0.32242033  0.30662683  1
  O  O1556  1  0.28203233  0.32242033  0.47329350  1
  O  O1557  1  0.28203233  0.32242033  0.63996017  1
  O  O1558  1  0.28203233  0.32242033  0.80662683  1
  O  O1559  1  0.28203233  0.32242033  0.97329350  1
  O  O1560  1  0.28203233  0.48908700  0.13996017  1
  O  O1561  1  0.28203233  0.48908700  0.30662683  1
  O  O1562  1  0.28203233  0.48908700  0.47329350  1
  O  O1563  1  0.28203233  0.48908700  0.63996017  1
  O  O1564  1  0.28203233  0.48908700  0.80662683  1
  O  O1565  1  0.28203233  0.48908700  0.97329350  1
  O  O1566  1  0.28203233  0.65575367  0.13996017  1
  O  O1567  1  0.28203233  0.65575367  0.30662683  1
  O  O1568  1  0.28203233  0.65575367  0.47329350  1
  O  O1569  1  0.28203233  0.65575367  0.63996017  1
  O  O1570  1  0.28203233  0.65575367  0.80662683  1
  O  O1571  1  0.28203233  0.65575367  0.97329350  1
  O  O1572  1  0.28203233  0.82242033  0.13996017  1
  O  O1573  1  0.28203233  0.82242033  0.30662683  1
  O  O1574  1  0.28203233  0.82242033  0.47329350  1
  O  O1575  1  0.28203233  0.82242033  0.63996017  1
  O  O1576  1  0.28203233  0.82242033  0.80662683  1
  O  O1577  1  0.28203233  0.82242033  0.97329350  1
  O  O1578  1  0.28203233  0.98908700  0.13996017  1
  O  O1579  1  0.28203233  0.98908700  0.30662683  1
  O  O1580  1  0.28203233  0.98908700  0.47329350  1
  O  O1581  1  0.28203233  0.98908700  0.63996017  1
  O  O1582  1  0.28203233  0.98908700  0.80662683  1
  O  O1583  1  0.28203233  0.98908700  0.97329350  1
  O  O1584  1  0.44869900  0.15575367  0.13996017  1
  O  O1585  1  0.44869900  0.15575367  0.30662683  1
  O  O1586  1  0.44869900  0.15575367  0.47329350  1
  O  O1587  1  0.44869900  0.15575367  0.63996017  1
  O  O1588  1  0.44869900  0.15575367  0.80662683  1
  O  O1589  1  0.44869900  0.15575367  0.97329350  1
  O  O1590  1  0.44869900  0.32242033  0.13996017  1
  O  O1591  1  0.44869900  0.32242033  0.30662683  1
  O  O1592  1  0.44869900  0.32242033  0.47329350  1
  O  O1593  1  0.44869900  0.32242033  0.63996017  1
  O  O1594  1  0.44869900  0.32242033  0.80662683  1
  O  O1595  1  0.44869900  0.32242033  0.97329350  1
  O  O1596  1  0.44869900  0.48908700  0.13996017  1
  O  O1597  1  0.44869900  0.48908700  0.30662683  1
  O  O1598  1  0.44869900  0.48908700  0.47329350  1
  O  O1599  1  0.44869900  0.48908700  0.63996017  1
  O  O1600  1  0.44869900  0.48908700  0.80662683  1
  O  O1601  1  0.44869900  0.48908700  0.97329350  1
  O  O1602  1  0.44869900  0.65575367  0.13996017  1
  O  O1603  1  0.44869900  0.65575367  0.30662683  1
  O  O1604  1  0.44869900  0.65575367  0.47329350  1
  O  O1605  1  0.44869900  0.65575367  0.63996017  1
  O  O1606  1  0.44869900  0.65575367  0.80662683  1
  O  O1607  1  0.44869900  0.65575367  0.97329350  1
  O  O1608  1  0.44869900  0.82242033  0.13996017  1
  O  O1609  1  0.44869900  0.82242033  0.30662683  1
  O  O1610  1  0.44869900  0.82242033  0.47329350  1
  O  O1611  1  0.44869900  0.82242033  0.63996017  1
  O  O1612  1  0.44869900  0.82242033  0.80662683  1
  O  O1613  1  0.44869900  0.82242033  0.97329350  1
  O  O1614  1  0.44869900  0.98908700  0.13996017  1
  O  O1615  1  0.44869900  0.98908700  0.30662683  1
  O  O1616  1  0.44869900  0.98908700  0.47329350  1
  O  O1617  1  0.44869900  0.98908700  0.63996017  1
  O  O1618  1  0.44869900  0.98908700  0.80662683  1
  O  O1619  1  0.44869900  0.98908700  0.97329350  1
  O  O1620  1  0.61536567  0.15575367  0.13996017  1
  O  O1621  1  0.61536567  0.15575367  0.30662683  1
  O  O1622  1  0.61536567  0.15575367  0.47329350  1
  O  O1623  1  0.61536567  0.15575367  0.63996017  1
  O  O1624  1  0.61536567  0.15575367  0.80662683  1
  O  O1625  1  0.61536567  0.15575367  0.97329350  1
  O  O1626  1  0.61536567  0.32242033  0.13996017  1
  O  O1627  1  0.61536567  0.32242033  0.30662683  1
  O  O1628  1  0.61536567  0.32242033  0.47329350  1
  O  O1629  1  0.61536567  0.32242033  0.63996017  1
  O  O1630  1  0.61536567  0.32242033  0.80662683  1
  O  O1631  1  0.61536567  0.32242033  0.97329350  1
  O  O1632  1  0.61536567  0.48908700  0.13996017  1
  O  O1633  1  0.61536567  0.48908700  0.30662683  1
  O  O1634  1  0.61536567  0.48908700  0.47329350  1
  O  O1635  1  0.61536567  0.48908700  0.63996017  1
  O  O1636  1  0.61536567  0.48908700  0.80662683  1
  O  O1637  1  0.61536567  0.48908700  0.97329350  1
  O  O1638  1  0.61536567  0.65575367  0.13996017  1
  O  O1639  1  0.61536567  0.65575367  0.30662683  1
  O  O1640  1  0.61536567  0.65575367  0.47329350  1
  O  O1641  1  0.61536567  0.65575367  0.63996017  1
  O  O1642  1  0.61536567  0.65575367  0.80662683  1
  O  O1643  1  0.61536567  0.65575367  0.97329350  1
  O  O1644  1  0.61536567  0.82242033  0.13996017  1
  O  O1645  1  0.61536567  0.82242033  0.30662683  1
  O  O1646  1  0.61536567  0.82242033  0.47329350  1
  O  O1647  1  0.61536567  0.82242033  0.63996017  1
  O  O1648  1  0.61536567  0.82242033  0.80662683  1
  O  O1649  1  0.61536567  0.82242033  0.97329350  1
  O  O1650  1  0.61536567  0.98908700  0.13996017  1
  O  O1651  1  0.61536567  0.98908700  0.30662683  1
  O  O1652  1  0.61536567  0.98908700  0.47329350  1
  O  O1653  1  0.61536567  0.98908700  0.63996017  1
  O  O1654  1  0.61536567  0.98908700  0.80662683  1
  O  O1655  1  0.61536567  0.98908700  0.97329350  1
  O  O1656  1  0.78203233  0.15575367  0.13996017  1
  O  O1657  1  0.78203233  0.15575367  0.30662683  1
  O  O1658  1  0.78203233  0.15575367  0.47329350  1
  O  O1659  1  0.78203233  0.15575367  0.63996017  1
  O  O1660  1  0.78203233  0.15575367  0.80662683  1
  O  O1661  1  0.78203233  0.15575367  0.97329350  1
  O  O1662  1  0.78203233  0.32242033  0.13996017  1
  O  O1663  1  0.78203233  0.32242033  0.30662683  1
  O  O1664  1  0.78203233  0.32242033  0.47329350  1
  O  O1665  1  0.78203233  0.32242033  0.63996017  1
  O  O1666  1  0.78203233  0.32242033  0.80662683  1
  O  O1667  1  0.78203233  0.32242033  0.97329350  1
  O  O1668  1  0.78203233  0.48908700  0.13996017  1
  O  O1669  1  0.78203233  0.48908700  0.30662683  1
  O  O1670  1  0.78203233  0.48908700  0.47329350  1
  O  O1671  1  0.78203233  0.48908700  0.63996017  1
  O  O1672  1  0.78203233  0.48908700  0.80662683  1
  O  O1673  1  0.78203233  0.48908700  0.97329350  1
  O  O1674  1  0.78203233  0.65575367  0.13996017  1
  O  O1675  1  0.78203233  0.65575367  0.30662683  1
  O  O1676  1  0.78203233  0.65575367  0.47329350  1
  O  O1677  1  0.78203233  0.65575367  0.63996017  1
  O  O1678  1  0.78203233  0.65575367  0.80662683  1
  O  O1679  1  0.78203233  0.65575367  0.97329350  1
  O  O1680  1  0.78203233  0.82242033  0.13996017  1
  O  O1681  1  0.78203233  0.82242033  0.30662683  1
  O  O1682  1  0.78203233  0.82242033  0.47329350  1
  O  O1683  1  0.78203233  0.82242033  0.63996017  1
  O  O1684  1  0.78203233  0.82242033  0.80662683  1
  O  O1685  1  0.78203233  0.82242033  0.97329350  1
  O  O1686  1  0.78203233  0.98908700  0.13996017  1
  O  O1687  1  0.78203233  0.98908700  0.30662683  1
  O  O1688  1  0.78203233  0.98908700  0.47329350  1
  O  O1689  1  0.78203233  0.98908700  0.63996017  1
  O  O1690  1  0.78203233  0.98908700  0.80662683  1
  O  O1691  1  0.78203233  0.98908700  0.97329350  1
  O  O1692  1  0.94869900  0.15575367  0.13996017  1
  O  O1693  1  0.94869900  0.15575367  0.30662683  1
  O  O1694  1  0.94869900  0.15575367  0.47329350  1
  O  O1695  1  0.94869900  0.15575367  0.63996017  1
  O  O1696  1  0.94869900  0.15575367  0.80662683  1
  O  O1697  1  0.94869900  0.15575367  0.97329350  1
  O  O1698  1  0.94869900  0.32242033  0.13996017  1
  O  O1699  1  0.94869900  0.32242033  0.30662683  1
  O  O1700  1  0.94869900  0.32242033  0.47329350  1
  O  O1701  1  0.94869900  0.32242033  0.63996017  1
  O  O1702  1  0.94869900  0.32242033  0.80662683  1
  O  O1703  1  0.94869900  0.32242033  0.97329350  1
  O  O1704  1  0.94869900  0.48908700  0.13996017  1
  O  O1705  1  0.94869900  0.48908700  0.30662683  1
  O  O1706  1  0.94869900  0.48908700  0.47329350  1
  O  O1707  1  0.94869900  0.48908700  0.63996017  1
  O  O1708  1  0.94869900  0.48908700  0.80662683  1
  O  O1709  1  0.94869900  0.48908700  0.97329350  1
  O  O1710  1  0.94869900  0.65575367  0.13996017  1
  O  O1711  1  0.94869900  0.65575367  0.30662683  1
  O  O1712  1  0.94869900  0.65575367  0.47329350  1
  O  O1713  1  0.94869900  0.65575367  0.63996017  1
  O  O1714  1  0.94869900  0.65575367  0.80662683  1
  O  O1715  1  0.94869900  0.65575367  0.97329350  1
  O  O1716  1  0.94869900  0.82242033  0.13996017  1
  O  O1717  1  0.94869900  0.82242033  0.30662683  1
  O  O1718  1  0.94869900  0.82242033  0.47329350  1
  O  O1719  1  0.94869900  0.82242033  0.63996017  1
  O  O1720  1  0.94869900  0.82242033  0.80662683  1
  O  O1721  1  0.94869900  0.82242033  0.97329350  1
  O  O1722  1  0.94869900  0.98908700  0.13996017  1
  O  O1723  1  0.94869900  0.98908700  0.30662683  1
  O  O1724  1  0.94869900  0.98908700  0.47329350  1
  O  O1725  1  0.94869900  0.98908700  0.63996017  1
  O  O1726  1  0.94869900  0.98908700  0.80662683  1
  O  O1727  1  0.94869900  0.98908700  0.97329350  1
  O  O1728  1  0.16134733  0.06083450  0.02851750  1
  O  O1729  1  0.16134733  0.06083450  0.19518417  1
  O  O1730  1  0.16134733  0.06083450  0.36185083  1
  O  O1731  1  0.16134733  0.06083450  0.52851750  1
  O  O1732  1  0.16134733  0.06083450  0.69518417  1
  O  O1733  1  0.16134733  0.06083450  0.86185083  1
  O  O1734  1  0.16134733  0.22750117  0.02851750  1
  O  O1735  1  0.16134733  0.22750117  0.19518417  1
  O  O1736  1  0.16134733  0.22750117  0.36185083  1
  O  O1737  1  0.16134733  0.22750117  0.52851750  1
  O  O1738  1  0.16134733  0.22750117  0.69518417  1
  O  O1739  1  0.16134733  0.22750117  0.86185083  1
  O  O1740  1  0.16134733  0.39416783  0.02851750  1
  O  O1741  1  0.16134733  0.39416783  0.19518417  1
  O  O1742  1  0.16134733  0.39416783  0.36185083  1
  O  O1743  1  0.16134733  0.39416783  0.52851750  1
  O  O1744  1  0.16134733  0.39416783  0.69518417  1
  O  O1745  1  0.16134733  0.39416783  0.86185083  1
  O  O1746  1  0.16134733  0.56083450  0.02851750  1
  O  O1747  1  0.16134733  0.56083450  0.19518417  1
  O  O1748  1  0.16134733  0.56083450  0.36185083  1
  O  O1749  1  0.16134733  0.56083450  0.52851750  1
  O  O1750  1  0.16134733  0.56083450  0.69518417  1
  O  O1751  1  0.16134733  0.56083450  0.86185083  1
  O  O1752  1  0.16134733  0.72750117  0.02851750  1
  O  O1753  1  0.16134733  0.72750117  0.19518417  1
  O  O1754  1  0.16134733  0.72750117  0.36185083  1
  O  O1755  1  0.16134733  0.72750117  0.52851750  1
  O  O1756  1  0.16134733  0.72750117  0.69518417  1
  O  O1757  1  0.16134733  0.72750117  0.86185083  1
  O  O1758  1  0.16134733  0.89416783  0.02851750  1
  O  O1759  1  0.16134733  0.89416783  0.19518417  1
  O  O1760  1  0.16134733  0.89416783  0.36185083  1
  O  O1761  1  0.16134733  0.89416783  0.52851750  1
  O  O1762  1  0.16134733  0.89416783  0.69518417  1
  O  O1763  1  0.16134733  0.89416783  0.86185083  1
  O  O1764  1  0.32801400  0.06083450  0.02851750  1
  O  O1765  1  0.32801400  0.06083450  0.19518417  1
  O  O1766  1  0.32801400  0.06083450  0.36185083  1
  O  O1767  1  0.32801400  0.06083450  0.52851750  1
  O  O1768  1  0.32801400  0.06083450  0.69518417  1
  O  O1769  1  0.32801400  0.06083450  0.86185083  1
  O  O1770  1  0.32801400  0.22750117  0.02851750  1
  O  O1771  1  0.32801400  0.22750117  0.19518417  1
  O  O1772  1  0.32801400  0.22750117  0.36185083  1
  O  O1773  1  0.32801400  0.22750117  0.52851750  1
  O  O1774  1  0.32801400  0.22750117  0.69518417  1
  O  O1775  1  0.32801400  0.22750117  0.86185083  1
  O  O1776  1  0.32801400  0.39416783  0.02851750  1
  O  O1777  1  0.32801400  0.39416783  0.19518417  1
  O  O1778  1  0.32801400  0.39416783  0.36185083  1
  O  O1779  1  0.32801400  0.39416783  0.52851750  1
  O  O1780  1  0.32801400  0.39416783  0.69518417  1
  O  O1781  1  0.32801400  0.39416783  0.86185083  1
  O  O1782  1  0.32801400  0.56083450  0.02851750  1
  O  O1783  1  0.32801400  0.56083450  0.19518417  1
  O  O1784  1  0.32801400  0.56083450  0.36185083  1
  O  O1785  1  0.32801400  0.56083450  0.52851750  1
  O  O1786  1  0.32801400  0.56083450  0.69518417  1
  O  O1787  1  0.32801400  0.56083450  0.86185083  1
  O  O1788  1  0.32801400  0.72750117  0.02851750  1
  O  O1789  1  0.32801400  0.72750117  0.19518417  1
  O  O1790  1  0.32801400  0.72750117  0.36185083  1
  O  O1791  1  0.32801400  0.72750117  0.52851750  1
  O  O1792  1  0.32801400  0.72750117  0.69518417  1
  O  O1793  1  0.32801400  0.72750117  0.86185083  1
  O  O1794  1  0.32801400  0.89416783  0.02851750  1
  O  O1795  1  0.32801400  0.89416783  0.19518417  1
  O  O1796  1  0.32801400  0.89416783  0.36185083  1
  O  O1797  1  0.32801400  0.89416783  0.52851750  1
  O  O1798  1  0.32801400  0.89416783  0.69518417  1
  O  O1799  1  0.32801400  0.89416783  0.86185083  1
  O  O1800  1  0.49468067  0.06083450  0.02851750  1
  O  O1801  1  0.49468067  0.06083450  0.19518417  1
  O  O1802  1  0.49468067  0.06083450  0.36185083  1
  O  O1803  1  0.49468067  0.06083450  0.52851750  1
  O  O1804  1  0.49468067  0.06083450  0.69518417  1
  O  O1805  1  0.49468067  0.06083450  0.86185083  1
  O  O1806  1  0.49468067  0.22750117  0.02851750  1
  O  O1807  1  0.49468067  0.22750117  0.19518417  1
  O  O1808  1  0.49468067  0.22750117  0.36185083  1
  O  O1809  1  0.49468067  0.22750117  0.52851750  1
  O  O1810  1  0.49468067  0.22750117  0.69518417  1
  O  O1811  1  0.49468067  0.22750117  0.86185083  1
  O  O1812  1  0.49468067  0.39416783  0.02851750  1
  O  O1813  1  0.49468067  0.39416783  0.19518417  1
  O  O1814  1  0.49468067  0.39416783  0.36185083  1
  O  O1815  1  0.49468067  0.39416783  0.52851750  1
  O  O1816  1  0.49468067  0.39416783  0.69518417  1
  O  O1817  1  0.49468067  0.39416783  0.86185083  1
  O  O1818  1  0.49468067  0.56083450  0.02851750  1
  O  O1819  1  0.49468067  0.56083450  0.19518417  1
  O  O1820  1  0.49468067  0.56083450  0.36185083  1
  O  O1821  1  0.49468067  0.56083450  0.52851750  1
  O  O1822  1  0.49468067  0.56083450  0.69518417  1
  O  O1823  1  0.49468067  0.56083450  0.86185083  1
  O  O1824  1  0.49468067  0.72750117  0.02851750  1
  O  O1825  1  0.49468067  0.72750117  0.19518417  1
  O  O1826  1  0.49468067  0.72750117  0.36185083  1
  O  O1827  1  0.49468067  0.72750117  0.52851750  1
  O  O1828  1  0.49468067  0.72750117  0.69518417  1
  O  O1829  1  0.49468067  0.72750117  0.86185083  1
  O  O1830  1  0.49468067  0.89416783  0.02851750  1
  O  O1831  1  0.49468067  0.89416783  0.19518417  1
  O  O1832  1  0.49468067  0.89416783  0.36185083  1
  O  O1833  1  0.49468067  0.89416783  0.52851750  1
  O  O1834  1  0.49468067  0.89416783  0.69518417  1
  O  O1835  1  0.49468067  0.89416783  0.86185083  1
  O  O1836  1  0.66134733  0.06083450  0.02851750  1
  O  O1837  1  0.66134733  0.06083450  0.19518417  1
  O  O1838  1  0.66134733  0.06083450  0.36185083  1
  O  O1839  1  0.66134733  0.06083450  0.52851750  1
  O  O1840  1  0.66134733  0.06083450  0.69518417  1
  O  O1841  1  0.66134733  0.06083450  0.86185083  1
  O  O1842  1  0.66134733  0.22750117  0.02851750  1
  O  O1843  1  0.66134733  0.22750117  0.19518417  1
  O  O1844  1  0.66134733  0.22750117  0.36185083  1
  O  O1845  1  0.66134733  0.22750117  0.52851750  1
  O  O1846  1  0.66134733  0.22750117  0.69518417  1
  O  O1847  1  0.66134733  0.22750117  0.86185083  1
  O  O1848  1  0.66134733  0.39416783  0.02851750  1
  O  O1849  1  0.66134733  0.39416783  0.19518417  1
  O  O1850  1  0.66134733  0.39416783  0.36185083  1
  O  O1851  1  0.66134733  0.39416783  0.52851750  1
  O  O1852  1  0.66134733  0.39416783  0.69518417  1
  O  O1853  1  0.66134733  0.39416783  0.86185083  1
  O  O1854  1  0.66134733  0.56083450  0.02851750  1
  O  O1855  1  0.66134733  0.56083450  0.19518417  1
  O  O1856  1  0.66134733  0.56083450  0.36185083  1
  O  O1857  1  0.66134733  0.56083450  0.52851750  1
  O  O1858  1  0.66134733  0.56083450  0.69518417  1
  O  O1859  1  0.66134733  0.56083450  0.86185083  1
  O  O1860  1  0.66134733  0.72750117  0.02851750  1
  O  O1861  1  0.66134733  0.72750117  0.19518417  1
  O  O1862  1  0.66134733  0.72750117  0.36185083  1
  O  O1863  1  0.66134733  0.72750117  0.52851750  1
  O  O1864  1  0.66134733  0.72750117  0.69518417  1
  O  O1865  1  0.66134733  0.72750117  0.86185083  1
  O  O1866  1  0.66134733  0.89416783  0.02851750  1
  O  O1867  1  0.66134733  0.89416783  0.19518417  1
  O  O1868  1  0.66134733  0.89416783  0.36185083  1
  O  O1869  1  0.66134733  0.89416783  0.52851750  1
  O  O1870  1  0.66134733  0.89416783  0.69518417  1
  O  O1871  1  0.66134733  0.89416783  0.86185083  1
  O  O1872  1  0.82801400  0.06083450  0.02851750  1
  O  O1873  1  0.82801400  0.06083450  0.19518417  1
  O  O1874  1  0.82801400  0.06083450  0.36185083  1
  O  O1875  1  0.82801400  0.06083450  0.52851750  1
  O  O1876  1  0.82801400  0.06083450  0.69518417  1
  O  O1877  1  0.82801400  0.06083450  0.86185083  1
  O  O1878  1  0.82801400  0.22750117  0.02851750  1
  O  O1879  1  0.82801400  0.22750117  0.19518417  1
  O  O1880  1  0.82801400  0.22750117  0.36185083  1
  O  O1881  1  0.82801400  0.22750117  0.52851750  1
  O  O1882  1  0.82801400  0.22750117  0.69518417  1
  O  O1883  1  0.82801400  0.22750117  0.86185083  1
  O  O1884  1  0.82801400  0.39416783  0.02851750  1
  O  O1885  1  0.82801400  0.39416783  0.19518417  1
  O  O1886  1  0.82801400  0.39416783  0.36185083  1
  O  O1887  1  0.82801400  0.39416783  0.52851750  1
  O  O1888  1  0.82801400  0.39416783  0.69518417  1
  O  O1889  1  0.82801400  0.39416783  0.86185083  1
  O  O1890  1  0.82801400  0.56083450  0.02851750  1
  O  O1891  1  0.82801400  0.56083450  0.19518417  1
  O  O1892  1  0.82801400  0.56083450  0.36185083  1
  O  O1893  1  0.82801400  0.56083450  0.52851750  1
  O  O1894  1  0.82801400  0.56083450  0.69518417  1
  O  O1895  1  0.82801400  0.56083450  0.86185083  1
  O  O1896  1  0.82801400  0.72750117  0.02851750  1
  O  O1897  1  0.82801400  0.72750117  0.19518417  1
  O  O1898  1  0.82801400  0.72750117  0.36185083  1
  O  O1899  1  0.82801400  0.72750117  0.52851750  1
  O  O1900  1  0.82801400  0.72750117  0.69518417  1
  O  O1901  1  0.82801400  0.72750117  0.86185083  1
  O  O1902  1  0.82801400  0.89416783  0.02851750  1
  O  O1903  1  0.82801400  0.89416783  0.19518417  1
  O  O1904  1  0.82801400  0.89416783  0.36185083  1
  O  O1905  1  0.82801400  0.89416783  0.52851750  1
  O  O1906  1  0.82801400  0.89416783  0.69518417  1
  O  O1907  1  0.82801400  0.89416783  0.86185083  1
  O  O1908  1  0.99468067  0.06083450  0.02851750  1
  O  O1909  1  0.99468067  0.06083450  0.19518417  1
  O  O1910  1  0.99468067  0.06083450  0.36185083  1
  O  O1911  1  0.99468067  0.06083450  0.52851750  1
  O  O1912  1  0.99468067  0.06083450  0.69518417  1
  O  O1913  1  0.99468067  0.06083450  0.86185083  1
  O  O1914  1  0.99468067  0.22750117  0.02851750  1
  O  O1915  1  0.99468067  0.22750117  0.19518417  1
  O  O1916  1  0.99468067  0.22750117  0.36185083  1
  O  O1917  1  0.99468067  0.22750117  0.52851750  1
  O  O1918  1  0.99468067  0.22750117  0.69518417  1
  O  O1919  1  0.99468067  0.22750117  0.86185083  1
  O  O1920  1  0.99468067  0.39416783  0.02851750  1
  O  O1921  1  0.99468067  0.39416783  0.19518417  1
  O  O1922  1  0.99468067  0.39416783  0.36185083  1
  O  O1923  1  0.99468067  0.39416783  0.52851750  1
  O  O1924  1  0.99468067  0.39416783  0.69518417  1
  O  O1925  1  0.99468067  0.39416783  0.86185083  1
  O  O1926  1  0.99468067  0.56083450  0.02851750  1
  O  O1927  1  0.99468067  0.56083450  0.19518417  1
  O  O1928  1  0.99468067  0.56083450  0.36185083  1
  O  O1929  1  0.99468067  0.56083450  0.52851750  1
  O  O1930  1  0.99468067  0.56083450  0.69518417  1
  O  O1931  1  0.99468067  0.56083450  0.86185083  1
  O  O1932  1  0.99468067  0.72750117  0.02851750  1
  O  O1933  1  0.99468067  0.72750117  0.19518417  1
  O  O1934  1  0.99468067  0.72750117  0.36185083  1
  O  O1935  1  0.99468067  0.72750117  0.52851750  1
  O  O1936  1  0.99468067  0.72750117  0.69518417  1
  O  O1937  1  0.99468067  0.72750117  0.86185083  1
  O  O1938  1  0.99468067  0.89416783  0.02851750  1
  O  O1939  1  0.99468067  0.89416783  0.19518417  1
  O  O1940  1  0.99468067  0.89416783  0.36185083  1
  O  O1941  1  0.99468067  0.89416783  0.52851750  1
  O  O1942  1  0.99468067  0.89416783  0.69518417  1
  O  O1943  1  0.99468067  0.89416783  0.86185083  1
  O  O1944  1  0.05129500  0.07135683  0.09703383  1
  O  O1945  1  0.05129500  0.07135683  0.26370050  1
  O  O1946  1  0.05129500  0.07135683  0.43036717  1
  O  O1947  1  0.05129500  0.07135683  0.59703383  1
  O  O1948  1  0.05129500  0.07135683  0.76370050  1
  O  O1949  1  0.05129500  0.07135683  0.93036717  1
  O  O1950  1  0.05129500  0.23802350  0.09703383  1
  O  O1951  1  0.05129500  0.23802350  0.26370050  1
  O  O1952  1  0.05129500  0.23802350  0.43036717  1
  O  O1953  1  0.05129500  0.23802350  0.59703383  1
  O  O1954  1  0.05129500  0.23802350  0.76370050  1
  O  O1955  1  0.05129500  0.23802350  0.93036717  1
  O  O1956  1  0.05129500  0.40469017  0.09703383  1
  O  O1957  1  0.05129500  0.40469017  0.26370050  1
  O  O1958  1  0.05129500  0.40469017  0.43036717  1
  O  O1959  1  0.05129500  0.40469017  0.59703383  1
  O  O1960  1  0.05129500  0.40469017  0.76370050  1
  O  O1961  1  0.05129500  0.40469017  0.93036717  1
  O  O1962  1  0.05129500  0.57135683  0.09703383  1
  O  O1963  1  0.05129500  0.57135683  0.26370050  1
  O  O1964  1  0.05129500  0.57135683  0.43036717  1
  O  O1965  1  0.05129500  0.57135683  0.59703383  1
  O  O1966  1  0.05129500  0.57135683  0.76370050  1
  O  O1967  1  0.05129500  0.57135683  0.93036717  1
  O  O1968  1  0.05129500  0.73802350  0.09703383  1
  O  O1969  1  0.05129500  0.73802350  0.26370050  1
  O  O1970  1  0.05129500  0.73802350  0.43036717  1
  O  O1971  1  0.05129500  0.73802350  0.59703383  1
  O  O1972  1  0.05129500  0.73802350  0.76370050  1
  O  O1973  1  0.05129500  0.73802350  0.93036717  1
  O  O1974  1  0.05129500  0.90469017  0.09703383  1
  O  O1975  1  0.05129500  0.90469017  0.26370050  1
  O  O1976  1  0.05129500  0.90469017  0.43036717  1
  O  O1977  1  0.05129500  0.90469017  0.59703383  1
  O  O1978  1  0.05129500  0.90469017  0.76370050  1
  O  O1979  1  0.05129500  0.90469017  0.93036717  1
  O  O1980  1  0.21796167  0.07135683  0.09703383  1
  O  O1981  1  0.21796167  0.07135683  0.26370050  1
  O  O1982  1  0.21796167  0.07135683  0.43036717  1
  O  O1983  1  0.21796167  0.07135683  0.59703383  1
  O  O1984  1  0.21796167  0.07135683  0.76370050  1
  O  O1985  1  0.21796167  0.07135683  0.93036717  1
  O  O1986  1  0.21796167  0.23802350  0.09703383  1
  O  O1987  1  0.21796167  0.23802350  0.26370050  1
  O  O1988  1  0.21796167  0.23802350  0.43036717  1
  O  O1989  1  0.21796167  0.23802350  0.59703383  1
  O  O1990  1  0.21796167  0.23802350  0.76370050  1
  O  O1991  1  0.21796167  0.23802350  0.93036717  1
  O  O1992  1  0.21796167  0.40469017  0.09703383  1
  O  O1993  1  0.21796167  0.40469017  0.26370050  1
  O  O1994  1  0.21796167  0.40469017  0.43036717  1
  O  O1995  1  0.21796167  0.40469017  0.59703383  1
  O  O1996  1  0.21796167  0.40469017  0.76370050  1
  O  O1997  1  0.21796167  0.40469017  0.93036717  1
  O  O1998  1  0.21796167  0.57135683  0.09703383  1
  O  O1999  1  0.21796167  0.57135683  0.26370050  1
  O  O2000  1  0.21796167  0.57135683  0.43036717  1
  O  O2001  1  0.21796167  0.57135683  0.59703383  1
  O  O2002  1  0.21796167  0.57135683  0.76370050  1
  O  O2003  1  0.21796167  0.57135683  0.93036717  1
  O  O2004  1  0.21796167  0.73802350  0.09703383  1
  O  O2005  1  0.21796167  0.73802350  0.26370050  1
  O  O2006  1  0.21796167  0.73802350  0.43036717  1
  O  O2007  1  0.21796167  0.73802350  0.59703383  1
  O  O2008  1  0.21796167  0.73802350  0.76370050  1
  O  O2009  1  0.21796167  0.73802350  0.93036717  1
  O  O2010  1  0.21796167  0.90469017  0.09703383  1
  O  O2011  1  0.21796167  0.90469017  0.26370050  1
  O  O2012  1  0.21796167  0.90469017  0.43036717  1
  O  O2013  1  0.21796167  0.90469017  0.59703383  1
  O  O2014  1  0.21796167  0.90469017  0.76370050  1
  O  O2015  1  0.21796167  0.90469017  0.93036717  1
  O  O2016  1  0.38462833  0.07135683  0.09703383  1
  O  O2017  1  0.38462833  0.07135683  0.26370050  1
  O  O2018  1  0.38462833  0.07135683  0.43036717  1
  O  O2019  1  0.38462833  0.07135683  0.59703383  1
  O  O2020  1  0.38462833  0.07135683  0.76370050  1
  O  O2021  1  0.38462833  0.07135683  0.93036717  1
  O  O2022  1  0.38462833  0.23802350  0.09703383  1
  O  O2023  1  0.38462833  0.23802350  0.26370050  1
  O  O2024  1  0.38462833  0.23802350  0.43036717  1
  O  O2025  1  0.38462833  0.23802350  0.59703383  1
  O  O2026  1  0.38462833  0.23802350  0.76370050  1
  O  O2027  1  0.38462833  0.23802350  0.93036717  1
  O  O2028  1  0.38462833  0.40469017  0.09703383  1
  O  O2029  1  0.38462833  0.40469017  0.26370050  1
  O  O2030  1  0.38462833  0.40469017  0.43036717  1
  O  O2031  1  0.38462833  0.40469017  0.59703383  1
  O  O2032  1  0.38462833  0.40469017  0.76370050  1
  O  O2033  1  0.38462833  0.40469017  0.93036717  1
  O  O2034  1  0.38462833  0.57135683  0.09703383  1
  O  O2035  1  0.38462833  0.57135683  0.26370050  1
  O  O2036  1  0.38462833  0.57135683  0.43036717  1
  O  O2037  1  0.38462833  0.57135683  0.59703383  1
  O  O2038  1  0.38462833  0.57135683  0.76370050  1
  O  O2039  1  0.38462833  0.57135683  0.93036717  1
  O  O2040  1  0.38462833  0.73802350  0.09703383  1
  O  O2041  1  0.38462833  0.73802350  0.26370050  1
  O  O2042  1  0.38462833  0.73802350  0.43036717  1
  O  O2043  1  0.38462833  0.73802350  0.59703383  1
  O  O2044  1  0.38462833  0.73802350  0.76370050  1
  O  O2045  1  0.38462833  0.73802350  0.93036717  1
  O  O2046  1  0.38462833  0.90469017  0.09703383  1
  O  O2047  1  0.38462833  0.90469017  0.26370050  1
  O  O2048  1  0.38462833  0.90469017  0.43036717  1
  O  O2049  1  0.38462833  0.90469017  0.59703383  1
  O  O2050  1  0.38462833  0.90469017  0.76370050  1
  O  O2051  1  0.38462833  0.90469017  0.93036717  1
  O  O2052  1  0.55129500  0.07135683  0.09703383  1
  O  O2053  1  0.55129500  0.07135683  0.26370050  1
  O  O2054  1  0.55129500  0.07135683  0.43036717  1
  O  O2055  1  0.55129500  0.07135683  0.59703383  1
  O  O2056  1  0.55129500  0.07135683  0.76370050  1
  O  O2057  1  0.55129500  0.07135683  0.93036717  1
  O  O2058  1  0.55129500  0.23802350  0.09703383  1
  O  O2059  1  0.55129500  0.23802350  0.26370050  1
  O  O2060  1  0.55129500  0.23802350  0.43036717  1
  O  O2061  1  0.55129500  0.23802350  0.59703383  1
  O  O2062  1  0.55129500  0.23802350  0.76370050  1
  O  O2063  1  0.55129500  0.23802350  0.93036717  1
  O  O2064  1  0.55129500  0.40469017  0.09703383  1
  O  O2065  1  0.55129500  0.40469017  0.26370050  1
  O  O2066  1  0.55129500  0.40469017  0.43036717  1
  O  O2067  1  0.55129500  0.40469017  0.59703383  1
  O  O2068  1  0.55129500  0.40469017  0.76370050  1
  O  O2069  1  0.55129500  0.40469017  0.93036717  1
  O  O2070  1  0.55129500  0.57135683  0.09703383  1
  O  O2071  1  0.55129500  0.57135683  0.26370050  1
  O  O2072  1  0.55129500  0.57135683  0.43036717  1
  O  O2073  1  0.55129500  0.57135683  0.59703383  1
  O  O2074  1  0.55129500  0.57135683  0.76370050  1
  O  O2075  1  0.55129500  0.57135683  0.93036717  1
  O  O2076  1  0.55129500  0.73802350  0.09703383  1
  O  O2077  1  0.55129500  0.73802350  0.26370050  1
  O  O2078  1  0.55129500  0.73802350  0.43036717  1
  O  O2079  1  0.55129500  0.73802350  0.59703383  1
  O  O2080  1  0.55129500  0.73802350  0.76370050  1
  O  O2081  1  0.55129500  0.73802350  0.93036717  1
  O  O2082  1  0.55129500  0.90469017  0.09703383  1
  O  O2083  1  0.55129500  0.90469017  0.26370050  1
  O  O2084  1  0.55129500  0.90469017  0.43036717  1
  O  O2085  1  0.55129500  0.90469017  0.59703383  1
  O  O2086  1  0.55129500  0.90469017  0.76370050  1
  O  O2087  1  0.55129500  0.90469017  0.93036717  1
  O  O2088  1  0.71796167  0.07135683  0.09703383  1
  O  O2089  1  0.71796167  0.07135683  0.26370050  1
  O  O2090  1  0.71796167  0.07135683  0.43036717  1
  O  O2091  1  0.71796167  0.07135683  0.59703383  1
  O  O2092  1  0.71796167  0.07135683  0.76370050  1
  O  O2093  1  0.71796167  0.07135683  0.93036717  1
  O  O2094  1  0.71796167  0.23802350  0.09703383  1
  O  O2095  1  0.71796167  0.23802350  0.26370050  1
  O  O2096  1  0.71796167  0.23802350  0.43036717  1
  O  O2097  1  0.71796167  0.23802350  0.59703383  1
  O  O2098  1  0.71796167  0.23802350  0.76370050  1
  O  O2099  1  0.71796167  0.23802350  0.93036717  1
  O  O2100  1  0.71796167  0.40469017  0.09703383  1
  O  O2101  1  0.71796167  0.40469017  0.26370050  1
  O  O2102  1  0.71796167  0.40469017  0.43036717  1
  O  O2103  1  0.71796167  0.40469017  0.59703383  1
  O  O2104  1  0.71796167  0.40469017  0.76370050  1
  O  O2105  1  0.71796167  0.40469017  0.93036717  1
  O  O2106  1  0.71796167  0.57135683  0.09703383  1
  O  O2107  1  0.71796167  0.57135683  0.26370050  1
  O  O2108  1  0.71796167  0.57135683  0.43036717  1
  O  O2109  1  0.71796167  0.57135683  0.59703383  1
  O  O2110  1  0.71796167  0.57135683  0.76370050  1
  O  O2111  1  0.71796167  0.57135683  0.93036717  1
  O  O2112  1  0.71796167  0.73802350  0.09703383  1
  O  O2113  1  0.71796167  0.73802350  0.26370050  1
  O  O2114  1  0.71796167  0.73802350  0.43036717  1
  O  O2115  1  0.71796167  0.73802350  0.59703383  1
  O  O2116  1  0.71796167  0.73802350  0.76370050  1
  O  O2117  1  0.71796167  0.73802350  0.93036717  1
  O  O2118  1  0.71796167  0.90469017  0.09703383  1
  O  O2119  1  0.71796167  0.90469017  0.26370050  1
  O  O2120  1  0.71796167  0.90469017  0.43036717  1
  O  O2121  1  0.71796167  0.90469017  0.59703383  1
  O  O2122  1  0.71796167  0.90469017  0.76370050  1
  O  O2123  1  0.71796167  0.90469017  0.93036717  1
  O  O2124  1  0.88462833  0.07135683  0.09703383  1
  O  O2125  1  0.88462833  0.07135683  0.26370050  1
  O  O2126  1  0.88462833  0.07135683  0.43036717  1
  O  O2127  1  0.88462833  0.07135683  0.59703383  1
  O  O2128  1  0.88462833  0.07135683  0.76370050  1
  O  O2129  1  0.88462833  0.07135683  0.93036717  1
  O  O2130  1  0.88462833  0.23802350  0.09703383  1
  O  O2131  1  0.88462833  0.23802350  0.26370050  1
  O  O2132  1  0.88462833  0.23802350  0.43036717  1
  O  O2133  1  0.88462833  0.23802350  0.59703383  1
  O  O2134  1  0.88462833  0.23802350  0.76370050  1
  O  O2135  1  0.88462833  0.23802350  0.93036717  1
  O  O2136  1  0.88462833  0.40469017  0.09703383  1
  O  O2137  1  0.88462833  0.40469017  0.26370050  1
  O  O2138  1  0.88462833  0.40469017  0.43036717  1
  O  O2139  1  0.88462833  0.40469017  0.59703383  1
  O  O2140  1  0.88462833  0.40469017  0.76370050  1
  O  O2141  1  0.88462833  0.40469017  0.93036717  1
  O  O2142  1  0.88462833  0.57135683  0.09703383  1
  O  O2143  1  0.88462833  0.57135683  0.26370050  1
  O  O2144  1  0.88462833  0.57135683  0.43036717  1
  O  O2145  1  0.88462833  0.57135683  0.59703383  1
  O  O2146  1  0.88462833  0.57135683  0.76370050  1
  O  O2147  1  0.88462833  0.57135683  0.93036717  1
  O  O2148  1  0.88462833  0.73802350  0.09703383  1
  O  O2149  1  0.88462833  0.73802350  0.26370050  1
  O  O2150  1  0.88462833  0.73802350  0.43036717  1
  O  O2151  1  0.88462833  0.73802350  0.59703383  1
  O  O2152  1  0.88462833  0.73802350  0.76370050  1
  O  O2153  1  0.88462833  0.73802350  0.93036717  1
  O  O2154  1  0.88462833  0.90469017  0.09703383  1
  O  O2155  1  0.88462833  0.90469017  0.26370050  1
  O  O2156  1  0.88462833  0.90469017  0.43036717  1
  O  O2157  1  0.88462833  0.90469017  0.59703383  1
  O  O2158  1  0.88462833  0.90469017  0.76370050  1
  O  O2159  1  0.88462833  0.90469017  0.93036717  1
  O  O2160  1  0.00531933  0.10583217  0.13814917  1
  O  O2161  1  0.00531933  0.10583217  0.30481583  1
  O  O2162  1  0.00531933  0.10583217  0.47148250  1
  O  O2163  1  0.00531933  0.10583217  0.63814917  1
  O  O2164  1  0.00531933  0.10583217  0.80481583  1
  O  O2165  1  0.00531933  0.10583217  0.97148250  1
  O  O2166  1  0.00531933  0.27249883  0.13814917  1
  O  O2167  1  0.00531933  0.27249883  0.30481583  1
  O  O2168  1  0.00531933  0.27249883  0.47148250  1
  O  O2169  1  0.00531933  0.27249883  0.63814917  1
  O  O2170  1  0.00531933  0.27249883  0.80481583  1
  O  O2171  1  0.00531933  0.27249883  0.97148250  1
  O  O2172  1  0.00531933  0.43916550  0.13814917  1
  O  O2173  1  0.00531933  0.43916550  0.30481583  1
  O  O2174  1  0.00531933  0.43916550  0.47148250  1
  O  O2175  1  0.00531933  0.43916550  0.63814917  1
  O  O2176  1  0.00531933  0.43916550  0.80481583  1
  O  O2177  1  0.00531933  0.43916550  0.97148250  1
  O  O2178  1  0.00531933  0.60583217  0.13814917  1
  O  O2179  1  0.00531933  0.60583217  0.30481583  1
  O  O2180  1  0.00531933  0.60583217  0.47148250  1
  O  O2181  1  0.00531933  0.60583217  0.63814917  1
  O  O2182  1  0.00531933  0.60583217  0.80481583  1
  O  O2183  1  0.00531933  0.60583217  0.97148250  1
  O  O2184  1  0.00531933  0.77249883  0.13814917  1
  O  O2185  1  0.00531933  0.77249883  0.30481583  1
  O  O2186  1  0.00531933  0.77249883  0.47148250  1
  O  O2187  1  0.00531933  0.77249883  0.63814917  1
  O  O2188  1  0.00531933  0.77249883  0.80481583  1
  O  O2189  1  0.00531933  0.77249883  0.97148250  1
  O  O2190  1  0.00531933  0.93916550  0.13814917  1
  O  O2191  1  0.00531933  0.93916550  0.30481583  1
  O  O2192  1  0.00531933  0.93916550  0.47148250  1
  O  O2193  1  0.00531933  0.93916550  0.63814917  1
  O  O2194  1  0.00531933  0.93916550  0.80481583  1
  O  O2195  1  0.00531933  0.93916550  0.97148250  1
  O  O2196  1  0.17198600  0.10583217  0.13814917  1
  O  O2197  1  0.17198600  0.10583217  0.30481583  1
  O  O2198  1  0.17198600  0.10583217  0.47148250  1
  O  O2199  1  0.17198600  0.10583217  0.63814917  1
  O  O2200  1  0.17198600  0.10583217  0.80481583  1
  O  O2201  1  0.17198600  0.10583217  0.97148250  1
  O  O2202  1  0.17198600  0.27249883  0.13814917  1
  O  O2203  1  0.17198600  0.27249883  0.30481583  1
  O  O2204  1  0.17198600  0.27249883  0.47148250  1
  O  O2205  1  0.17198600  0.27249883  0.63814917  1
  O  O2206  1  0.17198600  0.27249883  0.80481583  1
  O  O2207  1  0.17198600  0.27249883  0.97148250  1
  O  O2208  1  0.17198600  0.43916550  0.13814917  1
  O  O2209  1  0.17198600  0.43916550  0.30481583  1
  O  O2210  1  0.17198600  0.43916550  0.47148250  1
  O  O2211  1  0.17198600  0.43916550  0.63814917  1
  O  O2212  1  0.17198600  0.43916550  0.80481583  1
  O  O2213  1  0.17198600  0.43916550  0.97148250  1
  O  O2214  1  0.17198600  0.60583217  0.13814917  1
  O  O2215  1  0.17198600  0.60583217  0.30481583  1
  O  O2216  1  0.17198600  0.60583217  0.47148250  1
  O  O2217  1  0.17198600  0.60583217  0.63814917  1
  O  O2218  1  0.17198600  0.60583217  0.80481583  1
  O  O2219  1  0.17198600  0.60583217  0.97148250  1
  O  O2220  1  0.17198600  0.77249883  0.13814917  1
  O  O2221  1  0.17198600  0.77249883  0.30481583  1
  O  O2222  1  0.17198600  0.77249883  0.47148250  1
  O  O2223  1  0.17198600  0.77249883  0.63814917  1
  O  O2224  1  0.17198600  0.77249883  0.80481583  1
  O  O2225  1  0.17198600  0.77249883  0.97148250  1
  O  O2226  1  0.17198600  0.93916550  0.13814917  1
  O  O2227  1  0.17198600  0.93916550  0.30481583  1
  O  O2228  1  0.17198600  0.93916550  0.47148250  1
  O  O2229  1  0.17198600  0.93916550  0.63814917  1
  O  O2230  1  0.17198600  0.93916550  0.80481583  1
  O  O2231  1  0.17198600  0.93916550  0.97148250  1
  O  O2232  1  0.33865267  0.10583217  0.13814917  1
  O  O2233  1  0.33865267  0.10583217  0.30481583  1
  O  O2234  1  0.33865267  0.10583217  0.47148250  1
  O  O2235  1  0.33865267  0.10583217  0.63814917  1
  O  O2236  1  0.33865267  0.10583217  0.80481583  1
  O  O2237  1  0.33865267  0.10583217  0.97148250  1
  O  O2238  1  0.33865267  0.27249883  0.13814917  1
  O  O2239  1  0.33865267  0.27249883  0.30481583  1
  O  O2240  1  0.33865267  0.27249883  0.47148250  1
  O  O2241  1  0.33865267  0.27249883  0.63814917  1
  O  O2242  1  0.33865267  0.27249883  0.80481583  1
  O  O2243  1  0.33865267  0.27249883  0.97148250  1
  O  O2244  1  0.33865267  0.43916550  0.13814917  1
  O  O2245  1  0.33865267  0.43916550  0.30481583  1
  O  O2246  1  0.33865267  0.43916550  0.47148250  1
  O  O2247  1  0.33865267  0.43916550  0.63814917  1
  O  O2248  1  0.33865267  0.43916550  0.80481583  1
  O  O2249  1  0.33865267  0.43916550  0.97148250  1
  O  O2250  1  0.33865267  0.60583217  0.13814917  1
  O  O2251  1  0.33865267  0.60583217  0.30481583  1
  O  O2252  1  0.33865267  0.60583217  0.47148250  1
  O  O2253  1  0.33865267  0.60583217  0.63814917  1
  O  O2254  1  0.33865267  0.60583217  0.80481583  1
  O  O2255  1  0.33865267  0.60583217  0.97148250  1
  O  O2256  1  0.33865267  0.77249883  0.13814917  1
  O  O2257  1  0.33865267  0.77249883  0.30481583  1
  O  O2258  1  0.33865267  0.77249883  0.47148250  1
  O  O2259  1  0.33865267  0.77249883  0.63814917  1
  O  O2260  1  0.33865267  0.77249883  0.80481583  1
  O  O2261  1  0.33865267  0.77249883  0.97148250  1
  O  O2262  1  0.33865267  0.93916550  0.13814917  1
  O  O2263  1  0.33865267  0.93916550  0.30481583  1
  O  O2264  1  0.33865267  0.93916550  0.47148250  1
  O  O2265  1  0.33865267  0.93916550  0.63814917  1
  O  O2266  1  0.33865267  0.93916550  0.80481583  1
  O  O2267  1  0.33865267  0.93916550  0.97148250  1
  O  O2268  1  0.50531933  0.10583217  0.13814917  1
  O  O2269  1  0.50531933  0.10583217  0.30481583  1
  O  O2270  1  0.50531933  0.10583217  0.47148250  1
  O  O2271  1  0.50531933  0.10583217  0.63814917  1
  O  O2272  1  0.50531933  0.10583217  0.80481583  1
  O  O2273  1  0.50531933  0.10583217  0.97148250  1
  O  O2274  1  0.50531933  0.27249883  0.13814917  1
  O  O2275  1  0.50531933  0.27249883  0.30481583  1
  O  O2276  1  0.50531933  0.27249883  0.47148250  1
  O  O2277  1  0.50531933  0.27249883  0.63814917  1
  O  O2278  1  0.50531933  0.27249883  0.80481583  1
  O  O2279  1  0.50531933  0.27249883  0.97148250  1
  O  O2280  1  0.50531933  0.43916550  0.13814917  1
  O  O2281  1  0.50531933  0.43916550  0.30481583  1
  O  O2282  1  0.50531933  0.43916550  0.47148250  1
  O  O2283  1  0.50531933  0.43916550  0.63814917  1
  O  O2284  1  0.50531933  0.43916550  0.80481583  1
  O  O2285  1  0.50531933  0.43916550  0.97148250  1
  O  O2286  1  0.50531933  0.60583217  0.13814917  1
  O  O2287  1  0.50531933  0.60583217  0.30481583  1
  O  O2288  1  0.50531933  0.60583217  0.47148250  1
  O  O2289  1  0.50531933  0.60583217  0.63814917  1
  O  O2290  1  0.50531933  0.60583217  0.80481583  1
  O  O2291  1  0.50531933  0.60583217  0.97148250  1
  O  O2292  1  0.50531933  0.77249883  0.13814917  1
  O  O2293  1  0.50531933  0.77249883  0.30481583  1
  O  O2294  1  0.50531933  0.77249883  0.47148250  1
  O  O2295  1  0.50531933  0.77249883  0.63814917  1
  O  O2296  1  0.50531933  0.77249883  0.80481583  1
  O  O2297  1  0.50531933  0.77249883  0.97148250  1
  O  O2298  1  0.50531933  0.93916550  0.13814917  1
  O  O2299  1  0.50531933  0.93916550  0.30481583  1
  O  O2300  1  0.50531933  0.93916550  0.47148250  1
  O  O2301  1  0.50531933  0.93916550  0.63814917  1
  O  O2302  1  0.50531933  0.93916550  0.80481583  1
  O  O2303  1  0.50531933  0.93916550  0.97148250  1
  O  O2304  1  0.67198600  0.10583217  0.13814917  1
  O  O2305  1  0.67198600  0.10583217  0.30481583  1
  O  O2306  1  0.67198600  0.10583217  0.47148250  1
  O  O2307  1  0.67198600  0.10583217  0.63814917  1
  O  O2308  1  0.67198600  0.10583217  0.80481583  1
  O  O2309  1  0.67198600  0.10583217  0.97148250  1
  O  O2310  1  0.67198600  0.27249883  0.13814917  1
  O  O2311  1  0.67198600  0.27249883  0.30481583  1
  O  O2312  1  0.67198600  0.27249883  0.47148250  1
  O  O2313  1  0.67198600  0.27249883  0.63814917  1
  O  O2314  1  0.67198600  0.27249883  0.80481583  1
  O  O2315  1  0.67198600  0.27249883  0.97148250  1
  O  O2316  1  0.67198600  0.43916550  0.13814917  1
  O  O2317  1  0.67198600  0.43916550  0.30481583  1
  O  O2318  1  0.67198600  0.43916550  0.47148250  1
  O  O2319  1  0.67198600  0.43916550  0.63814917  1
  O  O2320  1  0.67198600  0.43916550  0.80481583  1
  O  O2321  1  0.67198600  0.43916550  0.97148250  1
  O  O2322  1  0.67198600  0.60583217  0.13814917  1
  O  O2323  1  0.67198600  0.60583217  0.30481583  1
  O  O2324  1  0.67198600  0.60583217  0.47148250  1
  O  O2325  1  0.67198600  0.60583217  0.63814917  1
  O  O2326  1  0.67198600  0.60583217  0.80481583  1
  O  O2327  1  0.67198600  0.60583217  0.97148250  1
  O  O2328  1  0.67198600  0.77249883  0.13814917  1
  O  O2329  1  0.67198600  0.77249883  0.30481583  1
  O  O2330  1  0.67198600  0.77249883  0.47148250  1
  O  O2331  1  0.67198600  0.77249883  0.63814917  1
  O  O2332  1  0.67198600  0.77249883  0.80481583  1
  O  O2333  1  0.67198600  0.77249883  0.97148250  1
  O  O2334  1  0.67198600  0.93916550  0.13814917  1
  O  O2335  1  0.67198600  0.93916550  0.30481583  1
  O  O2336  1  0.67198600  0.93916550  0.47148250  1
  O  O2337  1  0.67198600  0.93916550  0.63814917  1
  O  O2338  1  0.67198600  0.93916550  0.80481583  1
  O  O2339  1  0.67198600  0.93916550  0.97148250  1
  O  O2340  1  0.83865267  0.10583217  0.13814917  1
  O  O2341  1  0.83865267  0.10583217  0.30481583  1
  O  O2342  1  0.83865267  0.10583217  0.47148250  1
  O  O2343  1  0.83865267  0.10583217  0.63814917  1
  O  O2344  1  0.83865267  0.10583217  0.80481583  1
  O  O2345  1  0.83865267  0.10583217  0.97148250  1
  O  O2346  1  0.83865267  0.27249883  0.13814917  1
  O  O2347  1  0.83865267  0.27249883  0.30481583  1
  O  O2348  1  0.83865267  0.27249883  0.47148250  1
  O  O2349  1  0.83865267  0.27249883  0.63814917  1
  O  O2350  1  0.83865267  0.27249883  0.80481583  1
  O  O2351  1  0.83865267  0.27249883  0.97148250  1
  O  O2352  1  0.83865267  0.43916550  0.13814917  1
  O  O2353  1  0.83865267  0.43916550  0.30481583  1
  O  O2354  1  0.83865267  0.43916550  0.47148250  1
  O  O2355  1  0.83865267  0.43916550  0.63814917  1
  O  O2356  1  0.83865267  0.43916550  0.80481583  1
  O  O2357  1  0.83865267  0.43916550  0.97148250  1
  O  O2358  1  0.83865267  0.60583217  0.13814917  1
  O  O2359  1  0.83865267  0.60583217  0.30481583  1
  O  O2360  1  0.83865267  0.60583217  0.47148250  1
  O  O2361  1  0.83865267  0.60583217  0.63814917  1
  O  O2362  1  0.83865267  0.60583217  0.80481583  1
  O  O2363  1  0.83865267  0.60583217  0.97148250  1
  O  O2364  1  0.83865267  0.77249883  0.13814917  1
  O  O2365  1  0.83865267  0.77249883  0.30481583  1
  O  O2366  1  0.83865267  0.77249883  0.47148250  1
  O  O2367  1  0.83865267  0.77249883  0.63814917  1
  O  O2368  1  0.83865267  0.77249883  0.80481583  1
  O  O2369  1  0.83865267  0.77249883  0.97148250  1
  O  O2370  1  0.83865267  0.93916550  0.13814917  1
  O  O2371  1  0.83865267  0.93916550  0.30481583  1
  O  O2372  1  0.83865267  0.93916550  0.47148250  1
  O  O2373  1  0.83865267  0.93916550  0.63814917  1
  O  O2374  1  0.83865267  0.93916550  0.80481583  1
  O  O2375  1  0.83865267  0.93916550  0.97148250  1
  O  O2376  1  0.03363717  0.03459733  0.14124950  1
  O  O2377  1  0.03363717  0.03459733  0.30791617  1
  O  O2378  1  0.03363717  0.03459733  0.47458283  1
  O  O2379  1  0.03363717  0.03459733  0.64124950  1
  O  O2380  1  0.03363717  0.03459733  0.80791617  1
  O  O2381  1  0.03363717  0.03459733  0.97458283  1
  O  O2382  1  0.03363717  0.20126400  0.14124950  1
  O  O2383  1  0.03363717  0.20126400  0.30791617  1
  O  O2384  1  0.03363717  0.20126400  0.47458283  1
  O  O2385  1  0.03363717  0.20126400  0.64124950  1
  O  O2386  1  0.03363717  0.20126400  0.80791617  1
  O  O2387  1  0.03363717  0.20126400  0.97458283  1
  O  O2388  1  0.03363717  0.36793067  0.14124950  1
  O  O2389  1  0.03363717  0.36793067  0.30791617  1
  O  O2390  1  0.03363717  0.36793067  0.47458283  1
  O  O2391  1  0.03363717  0.36793067  0.64124950  1
  O  O2392  1  0.03363717  0.36793067  0.80791617  1
  O  O2393  1  0.03363717  0.36793067  0.97458283  1
  O  O2394  1  0.03363717  0.53459733  0.14124950  1
  O  O2395  1  0.03363717  0.53459733  0.30791617  1
  O  O2396  1  0.03363717  0.53459733  0.47458283  1
  O  O2397  1  0.03363717  0.53459733  0.64124950  1
  O  O2398  1  0.03363717  0.53459733  0.80791617  1
  O  O2399  1  0.03363717  0.53459733  0.97458283  1
  O  O2400  1  0.03363717  0.70126400  0.14124950  1
  O  O2401  1  0.03363717  0.70126400  0.30791617  1
  O  O2402  1  0.03363717  0.70126400  0.47458283  1
  O  O2403  1  0.03363717  0.70126400  0.64124950  1
  O  O2404  1  0.03363717  0.70126400  0.80791617  1
  O  O2405  1  0.03363717  0.70126400  0.97458283  1
  O  O2406  1  0.03363717  0.86793067  0.14124950  1
  O  O2407  1  0.03363717  0.86793067  0.30791617  1
  O  O2408  1  0.03363717  0.86793067  0.47458283  1
  O  O2409  1  0.03363717  0.86793067  0.64124950  1
  O  O2410  1  0.03363717  0.86793067  0.80791617  1
  O  O2411  1  0.03363717  0.86793067  0.97458283  1
  O  O2412  1  0.20030383  0.03459733  0.14124950  1
  O  O2413  1  0.20030383  0.03459733  0.30791617  1
  O  O2414  1  0.20030383  0.03459733  0.47458283  1
  O  O2415  1  0.20030383  0.03459733  0.64124950  1
  O  O2416  1  0.20030383  0.03459733  0.80791617  1
  O  O2417  1  0.20030383  0.03459733  0.97458283  1
  O  O2418  1  0.20030383  0.20126400  0.14124950  1
  O  O2419  1  0.20030383  0.20126400  0.30791617  1
  O  O2420  1  0.20030383  0.20126400  0.47458283  1
  O  O2421  1  0.20030383  0.20126400  0.64124950  1
  O  O2422  1  0.20030383  0.20126400  0.80791617  1
  O  O2423  1  0.20030383  0.20126400  0.97458283  1
  O  O2424  1  0.20030383  0.36793067  0.14124950  1
  O  O2425  1  0.20030383  0.36793067  0.30791617  1
  O  O2426  1  0.20030383  0.36793067  0.47458283  1
  O  O2427  1  0.20030383  0.36793067  0.64124950  1
  O  O2428  1  0.20030383  0.36793067  0.80791617  1
  O  O2429  1  0.20030383  0.36793067  0.97458283  1
  O  O2430  1  0.20030383  0.53459733  0.14124950  1
  O  O2431  1  0.20030383  0.53459733  0.30791617  1
  O  O2432  1  0.20030383  0.53459733  0.47458283  1
  O  O2433  1  0.20030383  0.53459733  0.64124950  1
  O  O2434  1  0.20030383  0.53459733  0.80791617  1
  O  O2435  1  0.20030383  0.53459733  0.97458283  1
  O  O2436  1  0.20030383  0.70126400  0.14124950  1
  O  O2437  1  0.20030383  0.70126400  0.30791617  1
  O  O2438  1  0.20030383  0.70126400  0.47458283  1
  O  O2439  1  0.20030383  0.70126400  0.64124950  1
  O  O2440  1  0.20030383  0.70126400  0.80791617  1
  O  O2441  1  0.20030383  0.70126400  0.97458283  1
  O  O2442  1  0.20030383  0.86793067  0.14124950  1
  O  O2443  1  0.20030383  0.86793067  0.30791617  1
  O  O2444  1  0.20030383  0.86793067  0.47458283  1
  O  O2445  1  0.20030383  0.86793067  0.64124950  1
  O  O2446  1  0.20030383  0.86793067  0.80791617  1
  O  O2447  1  0.20030383  0.86793067  0.97458283  1
  O  O2448  1  0.36697050  0.03459733  0.14124950  1
  O  O2449  1  0.36697050  0.03459733  0.30791617  1
  O  O2450  1  0.36697050  0.03459733  0.47458283  1
  O  O2451  1  0.36697050  0.03459733  0.64124950  1
  O  O2452  1  0.36697050  0.03459733  0.80791617  1
  O  O2453  1  0.36697050  0.03459733  0.97458283  1
  O  O2454  1  0.36697050  0.20126400  0.14124950  1
  O  O2455  1  0.36697050  0.20126400  0.30791617  1
  O  O2456  1  0.36697050  0.20126400  0.47458283  1
  O  O2457  1  0.36697050  0.20126400  0.64124950  1
  O  O2458  1  0.36697050  0.20126400  0.80791617  1
  O  O2459  1  0.36697050  0.20126400  0.97458283  1
  O  O2460  1  0.36697050  0.36793067  0.14124950  1
  O  O2461  1  0.36697050  0.36793067  0.30791617  1
  O  O2462  1  0.36697050  0.36793067  0.47458283  1
  O  O2463  1  0.36697050  0.36793067  0.64124950  1
  O  O2464  1  0.36697050  0.36793067  0.80791617  1
  O  O2465  1  0.36697050  0.36793067  0.97458283  1
  O  O2466  1  0.36697050  0.53459733  0.14124950  1
  O  O2467  1  0.36697050  0.53459733  0.30791617  1
  O  O2468  1  0.36697050  0.53459733  0.47458283  1
  O  O2469  1  0.36697050  0.53459733  0.64124950  1
  O  O2470  1  0.36697050  0.53459733  0.80791617  1
  O  O2471  1  0.36697050  0.53459733  0.97458283  1
  O  O2472  1  0.36697050  0.70126400  0.14124950  1
  O  O2473  1  0.36697050  0.70126400  0.30791617  1
  O  O2474  1  0.36697050  0.70126400  0.47458283  1
  O  O2475  1  0.36697050  0.70126400  0.64124950  1
  O  O2476  1  0.36697050  0.70126400  0.80791617  1
  O  O2477  1  0.36697050  0.70126400  0.97458283  1
  O  O2478  1  0.36697050  0.86793067  0.14124950  1
  O  O2479  1  0.36697050  0.86793067  0.30791617  1
  O  O2480  1  0.36697050  0.86793067  0.47458283  1
  O  O2481  1  0.36697050  0.86793067  0.64124950  1
  O  O2482  1  0.36697050  0.86793067  0.80791617  1
  O  O2483  1  0.36697050  0.86793067  0.97458283  1
  O  O2484  1  0.53363717  0.03459733  0.14124950  1
  O  O2485  1  0.53363717  0.03459733  0.30791617  1
  O  O2486  1  0.53363717  0.03459733  0.47458283  1
  O  O2487  1  0.53363717  0.03459733  0.64124950  1
  O  O2488  1  0.53363717  0.03459733  0.80791617  1
  O  O2489  1  0.53363717  0.03459733  0.97458283  1
  O  O2490  1  0.53363717  0.20126400  0.14124950  1
  O  O2491  1  0.53363717  0.20126400  0.30791617  1
  O  O2492  1  0.53363717  0.20126400  0.47458283  1
  O  O2493  1  0.53363717  0.20126400  0.64124950  1
  O  O2494  1  0.53363717  0.20126400  0.80791617  1
  O  O2495  1  0.53363717  0.20126400  0.97458283  1
  O  O2496  1  0.53363717  0.36793067  0.14124950  1
  O  O2497  1  0.53363717  0.36793067  0.30791617  1
  O  O2498  1  0.53363717  0.36793067  0.47458283  1
  O  O2499  1  0.53363717  0.36793067  0.64124950  1
  O  O2500  1  0.53363717  0.36793067  0.80791617  1
  O  O2501  1  0.53363717  0.36793067  0.97458283  1
  O  O2502  1  0.53363717  0.53459733  0.14124950  1
  O  O2503  1  0.53363717  0.53459733  0.30791617  1
  O  O2504  1  0.53363717  0.53459733  0.47458283  1
  O  O2505  1  0.53363717  0.53459733  0.64124950  1
  O  O2506  1  0.53363717  0.53459733  0.80791617  1
  O  O2507  1  0.53363717  0.53459733  0.97458283  1
  O  O2508  1  0.53363717  0.70126400  0.14124950  1
  O  O2509  1  0.53363717  0.70126400  0.30791617  1
  O  O2510  1  0.53363717  0.70126400  0.47458283  1
  O  O2511  1  0.53363717  0.70126400  0.64124950  1
  O  O2512  1  0.53363717  0.70126400  0.80791617  1
  O  O2513  1  0.53363717  0.70126400  0.97458283  1
  O  O2514  1  0.53363717  0.86793067  0.14124950  1
  O  O2515  1  0.53363717  0.86793067  0.30791617  1
  O  O2516  1  0.53363717  0.86793067  0.47458283  1
  O  O2517  1  0.53363717  0.86793067  0.64124950  1
  O  O2518  1  0.53363717  0.86793067  0.80791617  1
  O  O2519  1  0.53363717  0.86793067  0.97458283  1
  O  O2520  1  0.70030383  0.03459733  0.14124950  1
  O  O2521  1  0.70030383  0.03459733  0.30791617  1
  O  O2522  1  0.70030383  0.03459733  0.47458283  1
  O  O2523  1  0.70030383  0.03459733  0.64124950  1
  O  O2524  1  0.70030383  0.03459733  0.80791617  1
  O  O2525  1  0.70030383  0.03459733  0.97458283  1
  O  O2526  1  0.70030383  0.20126400  0.14124950  1
  O  O2527  1  0.70030383  0.20126400  0.30791617  1
  O  O2528  1  0.70030383  0.20126400  0.47458283  1
  O  O2529  1  0.70030383  0.20126400  0.64124950  1
  O  O2530  1  0.70030383  0.20126400  0.80791617  1
  O  O2531  1  0.70030383  0.20126400  0.97458283  1
  O  O2532  1  0.70030383  0.36793067  0.14124950  1
  O  O2533  1  0.70030383  0.36793067  0.30791617  1
  O  O2534  1  0.70030383  0.36793067  0.47458283  1
  O  O2535  1  0.70030383  0.36793067  0.64124950  1
  O  O2536  1  0.70030383  0.36793067  0.80791617  1
  O  O2537  1  0.70030383  0.36793067  0.97458283  1
  O  O2538  1  0.70030383  0.53459733  0.14124950  1
  O  O2539  1  0.70030383  0.53459733  0.30791617  1
  O  O2540  1  0.70030383  0.53459733  0.47458283  1
  O  O2541  1  0.70030383  0.53459733  0.64124950  1
  O  O2542  1  0.70030383  0.53459733  0.80791617  1
  O  O2543  1  0.70030383  0.53459733  0.97458283  1
  O  O2544  1  0.70030383  0.70126400  0.14124950  1
  O  O2545  1  0.70030383  0.70126400  0.30791617  1
  O  O2546  1  0.70030383  0.70126400  0.47458283  1
  O  O2547  1  0.70030383  0.70126400  0.64124950  1
  O  O2548  1  0.70030383  0.70126400  0.80791617  1
  O  O2549  1  0.70030383  0.70126400  0.97458283  1
  O  O2550  1  0.70030383  0.86793067  0.14124950  1
  O  O2551  1  0.70030383  0.86793067  0.30791617  1
  O  O2552  1  0.70030383  0.86793067  0.47458283  1
  O  O2553  1  0.70030383  0.86793067  0.64124950  1
  O  O2554  1  0.70030383  0.86793067  0.80791617  1
  O  O2555  1  0.70030383  0.86793067  0.97458283  1
  O  O2556  1  0.86697050  0.03459733  0.14124950  1
  O  O2557  1  0.86697050  0.03459733  0.30791617  1
  O  O2558  1  0.86697050  0.03459733  0.47458283  1
  O  O2559  1  0.86697050  0.03459733  0.64124950  1
  O  O2560  1  0.86697050  0.03459733  0.80791617  1
  O  O2561  1  0.86697050  0.03459733  0.97458283  1
  O  O2562  1  0.86697050  0.20126400  0.14124950  1
  O  O2563  1  0.86697050  0.20126400  0.30791617  1
  O  O2564  1  0.86697050  0.20126400  0.47458283  1
  O  O2565  1  0.86697050  0.20126400  0.64124950  1
  O  O2566  1  0.86697050  0.20126400  0.80791617  1
  O  O2567  1  0.86697050  0.20126400  0.97458283  1
  O  O2568  1  0.86697050  0.36793067  0.14124950  1
  O  O2569  1  0.86697050  0.36793067  0.30791617  1
  O  O2570  1  0.86697050  0.36793067  0.47458283  1
  O  O2571  1  0.86697050  0.36793067  0.64124950  1
  O  O2572  1  0.86697050  0.36793067  0.80791617  1
  O  O2573  1  0.86697050  0.36793067  0.97458283  1
  O  O2574  1  0.86697050  0.53459733  0.14124950  1
  O  O2575  1  0.86697050  0.53459733  0.30791617  1
  O  O2576  1  0.86697050  0.53459733  0.47458283  1
  O  O2577  1  0.86697050  0.53459733  0.64124950  1
  O  O2578  1  0.86697050  0.53459733  0.80791617  1
  O  O2579  1  0.86697050  0.53459733  0.97458283  1
  O  O2580  1  0.86697050  0.70126400  0.14124950  1
  O  O2581  1  0.86697050  0.70126400  0.30791617  1
  O  O2582  1  0.86697050  0.70126400  0.47458283  1
  O  O2583  1  0.86697050  0.70126400  0.64124950  1
  O  O2584  1  0.86697050  0.70126400  0.80791617  1
  O  O2585  1  0.86697050  0.70126400  0.97458283  1
  O  O2586  1  0.86697050  0.86793067  0.14124950  1
  O  O2587  1  0.86697050  0.86793067  0.30791617  1
  O  O2588  1  0.86697050  0.86793067  0.47458283  1
  O  O2589  1  0.86697050  0.86793067  0.64124950  1
  O  O2590  1  0.86697050  0.86793067  0.80791617  1
  O  O2591  1  0.86697050  0.86793067  0.97458283  1
  O  O2592  1  0.11537167  0.09530983  0.06963283  1
  O  O2593  1  0.11537167  0.09530983  0.23629950  1
  O  O2594  1  0.11537167  0.09530983  0.40296617  1
  O  O2595  1  0.11537167  0.09530983  0.56963283  1
  O  O2596  1  0.11537167  0.09530983  0.73629950  1
  O  O2597  1  0.11537167  0.09530983  0.90296617  1
  O  O2598  1  0.11537167  0.26197650  0.06963283  1
  O  O2599  1  0.11537167  0.26197650  0.23629950  1
  O  O2600  1  0.11537167  0.26197650  0.40296617  1
  O  O2601  1  0.11537167  0.26197650  0.56963283  1
  O  O2602  1  0.11537167  0.26197650  0.73629950  1
  O  O2603  1  0.11537167  0.26197650  0.90296617  1
  O  O2604  1  0.11537167  0.42864317  0.06963283  1
  O  O2605  1  0.11537167  0.42864317  0.23629950  1
  O  O2606  1  0.11537167  0.42864317  0.40296617  1
  O  O2607  1  0.11537167  0.42864317  0.56963283  1
  O  O2608  1  0.11537167  0.42864317  0.73629950  1
  O  O2609  1  0.11537167  0.42864317  0.90296617  1
  O  O2610  1  0.11537167  0.59530983  0.06963283  1
  O  O2611  1  0.11537167  0.59530983  0.23629950  1
  O  O2612  1  0.11537167  0.59530983  0.40296617  1
  O  O2613  1  0.11537167  0.59530983  0.56963283  1
  O  O2614  1  0.11537167  0.59530983  0.73629950  1
  O  O2615  1  0.11537167  0.59530983  0.90296617  1
  O  O2616  1  0.11537167  0.76197650  0.06963283  1
  O  O2617  1  0.11537167  0.76197650  0.23629950  1
  O  O2618  1  0.11537167  0.76197650  0.40296617  1
  O  O2619  1  0.11537167  0.76197650  0.56963283  1
  O  O2620  1  0.11537167  0.76197650  0.73629950  1
  O  O2621  1  0.11537167  0.76197650  0.90296617  1
  O  O2622  1  0.11537167  0.92864317  0.06963283  1
  O  O2623  1  0.11537167  0.92864317  0.23629950  1
  O  O2624  1  0.11537167  0.92864317  0.40296617  1
  O  O2625  1  0.11537167  0.92864317  0.56963283  1
  O  O2626  1  0.11537167  0.92864317  0.73629950  1
  O  O2627  1  0.11537167  0.92864317  0.90296617  1
  O  O2628  1  0.28203833  0.09530983  0.06963283  1
  O  O2629  1  0.28203833  0.09530983  0.23629950  1
  O  O2630  1  0.28203833  0.09530983  0.40296617  1
  O  O2631  1  0.28203833  0.09530983  0.56963283  1
  O  O2632  1  0.28203833  0.09530983  0.73629950  1
  O  O2633  1  0.28203833  0.09530983  0.90296617  1
  O  O2634  1  0.28203833  0.26197650  0.06963283  1
  O  O2635  1  0.28203833  0.26197650  0.23629950  1
  O  O2636  1  0.28203833  0.26197650  0.40296617  1
  O  O2637  1  0.28203833  0.26197650  0.56963283  1
  O  O2638  1  0.28203833  0.26197650  0.73629950  1
  O  O2639  1  0.28203833  0.26197650  0.90296617  1
  O  O2640  1  0.28203833  0.42864317  0.06963283  1
  O  O2641  1  0.28203833  0.42864317  0.23629950  1
  O  O2642  1  0.28203833  0.42864317  0.40296617  1
  O  O2643  1  0.28203833  0.42864317  0.56963283  1
  O  O2644  1  0.28203833  0.42864317  0.73629950  1
  O  O2645  1  0.28203833  0.42864317  0.90296617  1
  O  O2646  1  0.28203833  0.59530983  0.06963283  1
  O  O2647  1  0.28203833  0.59530983  0.23629950  1
  O  O2648  1  0.28203833  0.59530983  0.40296617  1
  O  O2649  1  0.28203833  0.59530983  0.56963283  1
  O  O2650  1  0.28203833  0.59530983  0.73629950  1
  O  O2651  1  0.28203833  0.59530983  0.90296617  1
  O  O2652  1  0.28203833  0.76197650  0.06963283  1
  O  O2653  1  0.28203833  0.76197650  0.23629950  1
  O  O2654  1  0.28203833  0.76197650  0.40296617  1
  O  O2655  1  0.28203833  0.76197650  0.56963283  1
  O  O2656  1  0.28203833  0.76197650  0.73629950  1
  O  O2657  1  0.28203833  0.76197650  0.90296617  1
  O  O2658  1  0.28203833  0.92864317  0.06963283  1
  O  O2659  1  0.28203833  0.92864317  0.23629950  1
  O  O2660  1  0.28203833  0.92864317  0.40296617  1
  O  O2661  1  0.28203833  0.92864317  0.56963283  1
  O  O2662  1  0.28203833  0.92864317  0.73629950  1
  O  O2663  1  0.28203833  0.92864317  0.90296617  1
  O  O2664  1  0.44870500  0.09530983  0.06963283  1
  O  O2665  1  0.44870500  0.09530983  0.23629950  1
  O  O2666  1  0.44870500  0.09530983  0.40296617  1
  O  O2667  1  0.44870500  0.09530983  0.56963283  1
  O  O2668  1  0.44870500  0.09530983  0.73629950  1
  O  O2669  1  0.44870500  0.09530983  0.90296617  1
  O  O2670  1  0.44870500  0.26197650  0.06963283  1
  O  O2671  1  0.44870500  0.26197650  0.23629950  1
  O  O2672  1  0.44870500  0.26197650  0.40296617  1
  O  O2673  1  0.44870500  0.26197650  0.56963283  1
  O  O2674  1  0.44870500  0.26197650  0.73629950  1
  O  O2675  1  0.44870500  0.26197650  0.90296617  1
  O  O2676  1  0.44870500  0.42864317  0.06963283  1
  O  O2677  1  0.44870500  0.42864317  0.23629950  1
  O  O2678  1  0.44870500  0.42864317  0.40296617  1
  O  O2679  1  0.44870500  0.42864317  0.56963283  1
  O  O2680  1  0.44870500  0.42864317  0.73629950  1
  O  O2681  1  0.44870500  0.42864317  0.90296617  1
  O  O2682  1  0.44870500  0.59530983  0.06963283  1
  O  O2683  1  0.44870500  0.59530983  0.23629950  1
  O  O2684  1  0.44870500  0.59530983  0.40296617  1
  O  O2685  1  0.44870500  0.59530983  0.56963283  1
  O  O2686  1  0.44870500  0.59530983  0.73629950  1
  O  O2687  1  0.44870500  0.59530983  0.90296617  1
  O  O2688  1  0.44870500  0.76197650  0.06963283  1
  O  O2689  1  0.44870500  0.76197650  0.23629950  1
  O  O2690  1  0.44870500  0.76197650  0.40296617  1
  O  O2691  1  0.44870500  0.76197650  0.56963283  1
  O  O2692  1  0.44870500  0.76197650  0.73629950  1
  O  O2693  1  0.44870500  0.76197650  0.90296617  1
  O  O2694  1  0.44870500  0.92864317  0.06963283  1
  O  O2695  1  0.44870500  0.92864317  0.23629950  1
  O  O2696  1  0.44870500  0.92864317  0.40296617  1
  O  O2697  1  0.44870500  0.92864317  0.56963283  1
  O  O2698  1  0.44870500  0.92864317  0.73629950  1
  O  O2699  1  0.44870500  0.92864317  0.90296617  1
  O  O2700  1  0.61537167  0.09530983  0.06963283  1
  O  O2701  1  0.61537167  0.09530983  0.23629950  1
  O  O2702  1  0.61537167  0.09530983  0.40296617  1
  O  O2703  1  0.61537167  0.09530983  0.56963283  1
  O  O2704  1  0.61537167  0.09530983  0.73629950  1
  O  O2705  1  0.61537167  0.09530983  0.90296617  1
  O  O2706  1  0.61537167  0.26197650  0.06963283  1
  O  O2707  1  0.61537167  0.26197650  0.23629950  1
  O  O2708  1  0.61537167  0.26197650  0.40296617  1
  O  O2709  1  0.61537167  0.26197650  0.56963283  1
  O  O2710  1  0.61537167  0.26197650  0.73629950  1
  O  O2711  1  0.61537167  0.26197650  0.90296617  1
  O  O2712  1  0.61537167  0.42864317  0.06963283  1
  O  O2713  1  0.61537167  0.42864317  0.23629950  1
  O  O2714  1  0.61537167  0.42864317  0.40296617  1
  O  O2715  1  0.61537167  0.42864317  0.56963283  1
  O  O2716  1  0.61537167  0.42864317  0.73629950  1
  O  O2717  1  0.61537167  0.42864317  0.90296617  1
  O  O2718  1  0.61537167  0.59530983  0.06963283  1
  O  O2719  1  0.61537167  0.59530983  0.23629950  1
  O  O2720  1  0.61537167  0.59530983  0.40296617  1
  O  O2721  1  0.61537167  0.59530983  0.56963283  1
  O  O2722  1  0.61537167  0.59530983  0.73629950  1
  O  O2723  1  0.61537167  0.59530983  0.90296617  1
  O  O2724  1  0.61537167  0.76197650  0.06963283  1
  O  O2725  1  0.61537167  0.76197650  0.23629950  1
  O  O2726  1  0.61537167  0.76197650  0.40296617  1
  O  O2727  1  0.61537167  0.76197650  0.56963283  1
  O  O2728  1  0.61537167  0.76197650  0.73629950  1
  O  O2729  1  0.61537167  0.76197650  0.90296617  1
  O  O2730  1  0.61537167  0.92864317  0.06963283  1
  O  O2731  1  0.61537167  0.92864317  0.23629950  1
  O  O2732  1  0.61537167  0.92864317  0.40296617  1
  O  O2733  1  0.61537167  0.92864317  0.56963283  1
  O  O2734  1  0.61537167  0.92864317  0.73629950  1
  O  O2735  1  0.61537167  0.92864317  0.90296617  1
  O  O2736  1  0.78203833  0.09530983  0.06963283  1
  O  O2737  1  0.78203833  0.09530983  0.23629950  1
  O  O2738  1  0.78203833  0.09530983  0.40296617  1
  O  O2739  1  0.78203833  0.09530983  0.56963283  1
  O  O2740  1  0.78203833  0.09530983  0.73629950  1
  O  O2741  1  0.78203833  0.09530983  0.90296617  1
  O  O2742  1  0.78203833  0.26197650  0.06963283  1
  O  O2743  1  0.78203833  0.26197650  0.23629950  1
  O  O2744  1  0.78203833  0.26197650  0.40296617  1
  O  O2745  1  0.78203833  0.26197650  0.56963283  1
  O  O2746  1  0.78203833  0.26197650  0.73629950  1
  O  O2747  1  0.78203833  0.26197650  0.90296617  1
  O  O2748  1  0.78203833  0.42864317  0.06963283  1
  O  O2749  1  0.78203833  0.42864317  0.23629950  1
  O  O2750  1  0.78203833  0.42864317  0.40296617  1
  O  O2751  1  0.78203833  0.42864317  0.56963283  1
  O  O2752  1  0.78203833  0.42864317  0.73629950  1
  O  O2753  1  0.78203833  0.42864317  0.90296617  1
  O  O2754  1  0.78203833  0.59530983  0.06963283  1
  O  O2755  1  0.78203833  0.59530983  0.23629950  1
  O  O2756  1  0.78203833  0.59530983  0.40296617  1
  O  O2757  1  0.78203833  0.59530983  0.56963283  1
  O  O2758  1  0.78203833  0.59530983  0.73629950  1
  O  O2759  1  0.78203833  0.59530983  0.90296617  1
  O  O2760  1  0.78203833  0.76197650  0.06963283  1
  O  O2761  1  0.78203833  0.76197650  0.23629950  1
  O  O2762  1  0.78203833  0.76197650  0.40296617  1
  O  O2763  1  0.78203833  0.76197650  0.56963283  1
  O  O2764  1  0.78203833  0.76197650  0.73629950  1
  O  O2765  1  0.78203833  0.76197650  0.90296617  1
  O  O2766  1  0.78203833  0.92864317  0.06963283  1
  O  O2767  1  0.78203833  0.92864317  0.23629950  1
  O  O2768  1  0.78203833  0.92864317  0.40296617  1
  O  O2769  1  0.78203833  0.92864317  0.56963283  1
  O  O2770  1  0.78203833  0.92864317  0.73629950  1
  O  O2771  1  0.78203833  0.92864317  0.90296617  1
  O  O2772  1  0.94870500  0.09530983  0.06963283  1
  O  O2773  1  0.94870500  0.09530983  0.23629950  1
  O  O2774  1  0.94870500  0.09530983  0.40296617  1
  O  O2775  1  0.94870500  0.09530983  0.56963283  1
  O  O2776  1  0.94870500  0.09530983  0.73629950  1
  O  O2777  1  0.94870500  0.09530983  0.90296617  1
  O  O2778  1  0.94870500  0.26197650  0.06963283  1
  O  O2779  1  0.94870500  0.26197650  0.23629950  1
  O  O2780  1  0.94870500  0.26197650  0.40296617  1
  O  O2781  1  0.94870500  0.26197650  0.56963283  1
  O  O2782  1  0.94870500  0.26197650  0.73629950  1
  O  O2783  1  0.94870500  0.26197650  0.90296617  1
  O  O2784  1  0.94870500  0.42864317  0.06963283  1
  O  O2785  1  0.94870500  0.42864317  0.23629950  1
  O  O2786  1  0.94870500  0.42864317  0.40296617  1
  O  O2787  1  0.94870500  0.42864317  0.56963283  1
  O  O2788  1  0.94870500  0.42864317  0.73629950  1
  O  O2789  1  0.94870500  0.42864317  0.90296617  1
  O  O2790  1  0.94870500  0.59530983  0.06963283  1
  O  O2791  1  0.94870500  0.59530983  0.23629950  1
  O  O2792  1  0.94870500  0.59530983  0.40296617  1
  O  O2793  1  0.94870500  0.59530983  0.56963283  1
  O  O2794  1  0.94870500  0.59530983  0.73629950  1
  O  O2795  1  0.94870500  0.59530983  0.90296617  1
  O  O2796  1  0.94870500  0.76197650  0.06963283  1
  O  O2797  1  0.94870500  0.76197650  0.23629950  1
  O  O2798  1  0.94870500  0.76197650  0.40296617  1
  O  O2799  1  0.94870500  0.76197650  0.56963283  1
  O  O2800  1  0.94870500  0.76197650  0.73629950  1
  O  O2801  1  0.94870500  0.76197650  0.90296617  1
  O  O2802  1  0.94870500  0.92864317  0.06963283  1
  O  O2803  1  0.94870500  0.92864317  0.23629950  1
  O  O2804  1  0.94870500  0.92864317  0.40296617  1
  O  O2805  1  0.94870500  0.92864317  0.56963283  1
  O  O2806  1  0.94870500  0.92864317  0.73629950  1
  O  O2807  1  0.94870500  0.92864317  0.90296617  1
  O  O2808  1  0.03670650  0.14347283  0.07492950  1
  O  O2809  1  0.03670650  0.14347283  0.24159617  1
  O  O2810  1  0.03670650  0.14347283  0.40826283  1
  O  O2811  1  0.03670650  0.14347283  0.57492950  1
  O  O2812  1  0.03670650  0.14347283  0.74159617  1
  O  O2813  1  0.03670650  0.14347283  0.90826283  1
  O  O2814  1  0.03670650  0.31013950  0.07492950  1
  O  O2815  1  0.03670650  0.31013950  0.24159617  1
  O  O2816  1  0.03670650  0.31013950  0.40826283  1
  O  O2817  1  0.03670650  0.31013950  0.57492950  1
  O  O2818  1  0.03670650  0.31013950  0.74159617  1
  O  O2819  1  0.03670650  0.31013950  0.90826283  1
  O  O2820  1  0.03670650  0.47680617  0.07492950  1
  O  O2821  1  0.03670650  0.47680617  0.24159617  1
  O  O2822  1  0.03670650  0.47680617  0.40826283  1
  O  O2823  1  0.03670650  0.47680617  0.57492950  1
  O  O2824  1  0.03670650  0.47680617  0.74159617  1
  O  O2825  1  0.03670650  0.47680617  0.90826283  1
  O  O2826  1  0.03670650  0.64347283  0.07492950  1
  O  O2827  1  0.03670650  0.64347283  0.24159617  1
  O  O2828  1  0.03670650  0.64347283  0.40826283  1
  O  O2829  1  0.03670650  0.64347283  0.57492950  1
  O  O2830  1  0.03670650  0.64347283  0.74159617  1
  O  O2831  1  0.03670650  0.64347283  0.90826283  1
  O  O2832  1  0.03670650  0.81013950  0.07492950  1
  O  O2833  1  0.03670650  0.81013950  0.24159617  1
  O  O2834  1  0.03670650  0.81013950  0.40826283  1
  O  O2835  1  0.03670650  0.81013950  0.57492950  1
  O  O2836  1  0.03670650  0.81013950  0.74159617  1
  O  O2837  1  0.03670650  0.81013950  0.90826283  1
  O  O2838  1  0.03670650  0.97680617  0.07492950  1
  O  O2839  1  0.03670650  0.97680617  0.24159617  1
  O  O2840  1  0.03670650  0.97680617  0.40826283  1
  O  O2841  1  0.03670650  0.97680617  0.57492950  1
  O  O2842  1  0.03670650  0.97680617  0.74159617  1
  O  O2843  1  0.03670650  0.97680617  0.90826283  1
  O  O2844  1  0.20337317  0.14347283  0.07492950  1
  O  O2845  1  0.20337317  0.14347283  0.24159617  1
  O  O2846  1  0.20337317  0.14347283  0.40826283  1
  O  O2847  1  0.20337317  0.14347283  0.57492950  1
  O  O2848  1  0.20337317  0.14347283  0.74159617  1
  O  O2849  1  0.20337317  0.14347283  0.90826283  1
  O  O2850  1  0.20337317  0.31013950  0.07492950  1
  O  O2851  1  0.20337317  0.31013950  0.24159617  1
  O  O2852  1  0.20337317  0.31013950  0.40826283  1
  O  O2853  1  0.20337317  0.31013950  0.57492950  1
  O  O2854  1  0.20337317  0.31013950  0.74159617  1
  O  O2855  1  0.20337317  0.31013950  0.90826283  1
  O  O2856  1  0.20337317  0.47680617  0.07492950  1
  O  O2857  1  0.20337317  0.47680617  0.24159617  1
  O  O2858  1  0.20337317  0.47680617  0.40826283  1
  O  O2859  1  0.20337317  0.47680617  0.57492950  1
  O  O2860  1  0.20337317  0.47680617  0.74159617  1
  O  O2861  1  0.20337317  0.47680617  0.90826283  1
  O  O2862  1  0.20337317  0.64347283  0.07492950  1
  O  O2863  1  0.20337317  0.64347283  0.24159617  1
  O  O2864  1  0.20337317  0.64347283  0.40826283  1
  O  O2865  1  0.20337317  0.64347283  0.57492950  1
  O  O2866  1  0.20337317  0.64347283  0.74159617  1
  O  O2867  1  0.20337317  0.64347283  0.90826283  1
  O  O2868  1  0.20337317  0.81013950  0.07492950  1
  O  O2869  1  0.20337317  0.81013950  0.24159617  1
  O  O2870  1  0.20337317  0.81013950  0.40826283  1
  O  O2871  1  0.20337317  0.81013950  0.57492950  1
  O  O2872  1  0.20337317  0.81013950  0.74159617  1
  O  O2873  1  0.20337317  0.81013950  0.90826283  1
  O  O2874  1  0.20337317  0.97680617  0.07492950  1
  O  O2875  1  0.20337317  0.97680617  0.24159617  1
  O  O2876  1  0.20337317  0.97680617  0.40826283  1
  O  O2877  1  0.20337317  0.97680617  0.57492950  1
  O  O2878  1  0.20337317  0.97680617  0.74159617  1
  O  O2879  1  0.20337317  0.97680617  0.90826283  1
  O  O2880  1  0.37003983  0.14347283  0.07492950  1
  O  O2881  1  0.37003983  0.14347283  0.24159617  1
  O  O2882  1  0.37003983  0.14347283  0.40826283  1
  O  O2883  1  0.37003983  0.14347283  0.57492950  1
  O  O2884  1  0.37003983  0.14347283  0.74159617  1
  O  O2885  1  0.37003983  0.14347283  0.90826283  1
  O  O2886  1  0.37003983  0.31013950  0.07492950  1
  O  O2887  1  0.37003983  0.31013950  0.24159617  1
  O  O2888  1  0.37003983  0.31013950  0.40826283  1
  O  O2889  1  0.37003983  0.31013950  0.57492950  1
  O  O2890  1  0.37003983  0.31013950  0.74159617  1
  O  O2891  1  0.37003983  0.31013950  0.90826283  1
  O  O2892  1  0.37003983  0.47680617  0.07492950  1
  O  O2893  1  0.37003983  0.47680617  0.24159617  1
  O  O2894  1  0.37003983  0.47680617  0.40826283  1
  O  O2895  1  0.37003983  0.47680617  0.57492950  1
  O  O2896  1  0.37003983  0.47680617  0.74159617  1
  O  O2897  1  0.37003983  0.47680617  0.90826283  1
  O  O2898  1  0.37003983  0.64347283  0.07492950  1
  O  O2899  1  0.37003983  0.64347283  0.24159617  1
  O  O2900  1  0.37003983  0.64347283  0.40826283  1
  O  O2901  1  0.37003983  0.64347283  0.57492950  1
  O  O2902  1  0.37003983  0.64347283  0.74159617  1
  O  O2903  1  0.37003983  0.64347283  0.90826283  1
  O  O2904  1  0.37003983  0.81013950  0.07492950  1
  O  O2905  1  0.37003983  0.81013950  0.24159617  1
  O  O2906  1  0.37003983  0.81013950  0.40826283  1
  O  O2907  1  0.37003983  0.81013950  0.57492950  1
  O  O2908  1  0.37003983  0.81013950  0.74159617  1
  O  O2909  1  0.37003983  0.81013950  0.90826283  1
  O  O2910  1  0.37003983  0.97680617  0.07492950  1
  O  O2911  1  0.37003983  0.97680617  0.24159617  1
  O  O2912  1  0.37003983  0.97680617  0.40826283  1
  O  O2913  1  0.37003983  0.97680617  0.57492950  1
  O  O2914  1  0.37003983  0.97680617  0.74159617  1
  O  O2915  1  0.37003983  0.97680617  0.90826283  1
  O  O2916  1  0.53670650  0.14347283  0.07492950  1
  O  O2917  1  0.53670650  0.14347283  0.24159617  1
  O  O2918  1  0.53670650  0.14347283  0.40826283  1
  O  O2919  1  0.53670650  0.14347283  0.57492950  1
  O  O2920  1  0.53670650  0.14347283  0.74159617  1
  O  O2921  1  0.53670650  0.14347283  0.90826283  1
  O  O2922  1  0.53670650  0.31013950  0.07492950  1
  O  O2923  1  0.53670650  0.31013950  0.24159617  1
  O  O2924  1  0.53670650  0.31013950  0.40826283  1
  O  O2925  1  0.53670650  0.31013950  0.57492950  1
  O  O2926  1  0.53670650  0.31013950  0.74159617  1
  O  O2927  1  0.53670650  0.31013950  0.90826283  1
  O  O2928  1  0.53670650  0.47680617  0.07492950  1
  O  O2929  1  0.53670650  0.47680617  0.24159617  1
  O  O2930  1  0.53670650  0.47680617  0.40826283  1
  O  O2931  1  0.53670650  0.47680617  0.57492950  1
  O  O2932  1  0.53670650  0.47680617  0.74159617  1
  O  O2933  1  0.53670650  0.47680617  0.90826283  1
  O  O2934  1  0.53670650  0.64347283  0.07492950  1
  O  O2935  1  0.53670650  0.64347283  0.24159617  1
  O  O2936  1  0.53670650  0.64347283  0.40826283  1
  O  O2937  1  0.53670650  0.64347283  0.57492950  1
  O  O2938  1  0.53670650  0.64347283  0.74159617  1
  O  O2939  1  0.53670650  0.64347283  0.90826283  1
  O  O2940  1  0.53670650  0.81013950  0.07492950  1
  O  O2941  1  0.53670650  0.81013950  0.24159617  1
  O  O2942  1  0.53670650  0.81013950  0.40826283  1
  O  O2943  1  0.53670650  0.81013950  0.57492950  1
  O  O2944  1  0.53670650  0.81013950  0.74159617  1
  O  O2945  1  0.53670650  0.81013950  0.90826283  1
  O  O2946  1  0.53670650  0.97680617  0.07492950  1
  O  O2947  1  0.53670650  0.97680617  0.24159617  1
  O  O2948  1  0.53670650  0.97680617  0.40826283  1
  O  O2949  1  0.53670650  0.97680617  0.57492950  1
  O  O2950  1  0.53670650  0.97680617  0.74159617  1
  O  O2951  1  0.53670650  0.97680617  0.90826283  1
  O  O2952  1  0.70337317  0.14347283  0.07492950  1
  O  O2953  1  0.70337317  0.14347283  0.24159617  1
  O  O2954  1  0.70337317  0.14347283  0.40826283  1
  O  O2955  1  0.70337317  0.14347283  0.57492950  1
  O  O2956  1  0.70337317  0.14347283  0.74159617  1
  O  O2957  1  0.70337317  0.14347283  0.90826283  1
  O  O2958  1  0.70337317  0.31013950  0.07492950  1
  O  O2959  1  0.70337317  0.31013950  0.24159617  1
  O  O2960  1  0.70337317  0.31013950  0.40826283  1
  O  O2961  1  0.70337317  0.31013950  0.57492950  1
  O  O2962  1  0.70337317  0.31013950  0.74159617  1
  O  O2963  1  0.70337317  0.31013950  0.90826283  1
  O  O2964  1  0.70337317  0.47680617  0.07492950  1
  O  O2965  1  0.70337317  0.47680617  0.24159617  1
  O  O2966  1  0.70337317  0.47680617  0.40826283  1
  O  O2967  1  0.70337317  0.47680617  0.57492950  1
  O  O2968  1  0.70337317  0.47680617  0.74159617  1
  O  O2969  1  0.70337317  0.47680617  0.90826283  1
  O  O2970  1  0.70337317  0.64347283  0.07492950  1
  O  O2971  1  0.70337317  0.64347283  0.24159617  1
  O  O2972  1  0.70337317  0.64347283  0.40826283  1
  O  O2973  1  0.70337317  0.64347283  0.57492950  1
  O  O2974  1  0.70337317  0.64347283  0.74159617  1
  O  O2975  1  0.70337317  0.64347283  0.90826283  1
  O  O2976  1  0.70337317  0.81013950  0.07492950  1
  O  O2977  1  0.70337317  0.81013950  0.24159617  1
  O  O2978  1  0.70337317  0.81013950  0.40826283  1
  O  O2979  1  0.70337317  0.81013950  0.57492950  1
  O  O2980  1  0.70337317  0.81013950  0.74159617  1
  O  O2981  1  0.70337317  0.81013950  0.90826283  1
  O  O2982  1  0.70337317  0.97680617  0.07492950  1
  O  O2983  1  0.70337317  0.97680617  0.24159617  1
  O  O2984  1  0.70337317  0.97680617  0.40826283  1
  O  O2985  1  0.70337317  0.97680617  0.57492950  1
  O  O2986  1  0.70337317  0.97680617  0.74159617  1
  O  O2987  1  0.70337317  0.97680617  0.90826283  1
  O  O2988  1  0.87003983  0.14347283  0.07492950  1
  O  O2989  1  0.87003983  0.14347283  0.24159617  1
  O  O2990  1  0.87003983  0.14347283  0.40826283  1
  O  O2991  1  0.87003983  0.14347283  0.57492950  1
  O  O2992  1  0.87003983  0.14347283  0.74159617  1
  O  O2993  1  0.87003983  0.14347283  0.90826283  1
  O  O2994  1  0.87003983  0.31013950  0.07492950  1
  O  O2995  1  0.87003983  0.31013950  0.24159617  1
  O  O2996  1  0.87003983  0.31013950  0.40826283  1
  O  O2997  1  0.87003983  0.31013950  0.57492950  1
  O  O2998  1  0.87003983  0.31013950  0.74159617  1
  O  O2999  1  0.87003983  0.31013950  0.90826283  1
  O  O3000  1  0.87003983  0.47680617  0.07492950  1
  O  O3001  1  0.87003983  0.47680617  0.24159617  1
  O  O3002  1  0.87003983  0.47680617  0.40826283  1
  O  O3003  1  0.87003983  0.47680617  0.57492950  1
  O  O3004  1  0.87003983  0.47680617  0.74159617  1
  O  O3005  1  0.87003983  0.47680617  0.90826283  1
  O  O3006  1  0.87003983  0.64347283  0.07492950  1
  O  O3007  1  0.87003983  0.64347283  0.24159617  1
  O  O3008  1  0.87003983  0.64347283  0.40826283  1
  O  O3009  1  0.87003983  0.64347283  0.57492950  1
  O  O3010  1  0.87003983  0.64347283  0.74159617  1
  O  O3011  1  0.87003983  0.64347283  0.90826283  1
  O  O3012  1  0.87003983  0.81013950  0.07492950  1
  O  O3013  1  0.87003983  0.81013950  0.24159617  1
  O  O3014  1  0.87003983  0.81013950  0.40826283  1
  O  O3015  1  0.87003983  0.81013950  0.57492950  1
  O  O3016  1  0.87003983  0.81013950  0.74159617  1
  O  O3017  1  0.87003983  0.81013950  0.90826283  1
  O  O3018  1  0.87003983  0.97680617  0.07492950  1
  O  O3019  1  0.87003983  0.97680617  0.24159617  1
  O  O3020  1  0.87003983  0.97680617  0.40826283  1
  O  O3021  1  0.87003983  0.97680617  0.57492950  1
  O  O3022  1  0.87003983  0.97680617  0.74159617  1
  O  O3023  1  0.87003983  0.97680617  0.90826283  1
  O  O3024  1  0.05130100  0.01091300  0.02670650  1
  O  O3025  1  0.05130100  0.01091300  0.19337317  1
  O  O3026  1  0.05130100  0.01091300  0.36003983  1
  O  O3027  1  0.05130100  0.01091300  0.52670650  1
  O  O3028  1  0.05130100  0.01091300  0.69337317  1
  O  O3029  1  0.05130100  0.01091300  0.86003983  1
  O  O3030  1  0.05130100  0.17757967  0.02670650  1
  O  O3031  1  0.05130100  0.17757967  0.19337317  1
  O  O3032  1  0.05130100  0.17757967  0.36003983  1
  O  O3033  1  0.05130100  0.17757967  0.52670650  1
  O  O3034  1  0.05130100  0.17757967  0.69337317  1
  O  O3035  1  0.05130100  0.17757967  0.86003983  1
  O  O3036  1  0.05130100  0.34424633  0.02670650  1
  O  O3037  1  0.05130100  0.34424633  0.19337317  1
  O  O3038  1  0.05130100  0.34424633  0.36003983  1
  O  O3039  1  0.05130100  0.34424633  0.52670650  1
  O  O3040  1  0.05130100  0.34424633  0.69337317  1
  O  O3041  1  0.05130100  0.34424633  0.86003983  1
  O  O3042  1  0.05130100  0.51091300  0.02670650  1
  O  O3043  1  0.05130100  0.51091300  0.19337317  1
  O  O3044  1  0.05130100  0.51091300  0.36003983  1
  O  O3045  1  0.05130100  0.51091300  0.52670650  1
  O  O3046  1  0.05130100  0.51091300  0.69337317  1
  O  O3047  1  0.05130100  0.51091300  0.86003983  1
  O  O3048  1  0.05130100  0.67757967  0.02670650  1
  O  O3049  1  0.05130100  0.67757967  0.19337317  1
  O  O3050  1  0.05130100  0.67757967  0.36003983  1
  O  O3051  1  0.05130100  0.67757967  0.52670650  1
  O  O3052  1  0.05130100  0.67757967  0.69337317  1
  O  O3053  1  0.05130100  0.67757967  0.86003983  1
  O  O3054  1  0.05130100  0.84424633  0.02670650  1
  O  O3055  1  0.05130100  0.84424633  0.19337317  1
  O  O3056  1  0.05130100  0.84424633  0.36003983  1
  O  O3057  1  0.05130100  0.84424633  0.52670650  1
  O  O3058  1  0.05130100  0.84424633  0.69337317  1
  O  O3059  1  0.05130100  0.84424633  0.86003983  1
  O  O3060  1  0.21796767  0.01091300  0.02670650  1
  O  O3061  1  0.21796767  0.01091300  0.19337317  1
  O  O3062  1  0.21796767  0.01091300  0.36003983  1
  O  O3063  1  0.21796767  0.01091300  0.52670650  1
  O  O3064  1  0.21796767  0.01091300  0.69337317  1
  O  O3065  1  0.21796767  0.01091300  0.86003983  1
  O  O3066  1  0.21796767  0.17757967  0.02670650  1
  O  O3067  1  0.21796767  0.17757967  0.19337317  1
  O  O3068  1  0.21796767  0.17757967  0.36003983  1
  O  O3069  1  0.21796767  0.17757967  0.52670650  1
  O  O3070  1  0.21796767  0.17757967  0.69337317  1
  O  O3071  1  0.21796767  0.17757967  0.86003983  1
  O  O3072  1  0.21796767  0.34424633  0.02670650  1
  O  O3073  1  0.21796767  0.34424633  0.19337317  1
  O  O3074  1  0.21796767  0.34424633  0.36003983  1
  O  O3075  1  0.21796767  0.34424633  0.52670650  1
  O  O3076  1  0.21796767  0.34424633  0.69337317  1
  O  O3077  1  0.21796767  0.34424633  0.86003983  1
  O  O3078  1  0.21796767  0.51091300  0.02670650  1
  O  O3079  1  0.21796767  0.51091300  0.19337317  1
  O  O3080  1  0.21796767  0.51091300  0.36003983  1
  O  O3081  1  0.21796767  0.51091300  0.52670650  1
  O  O3082  1  0.21796767  0.51091300  0.69337317  1
  O  O3083  1  0.21796767  0.51091300  0.86003983  1
  O  O3084  1  0.21796767  0.67757967  0.02670650  1
  O  O3085  1  0.21796767  0.67757967  0.19337317  1
  O  O3086  1  0.21796767  0.67757967  0.36003983  1
  O  O3087  1  0.21796767  0.67757967  0.52670650  1
  O  O3088  1  0.21796767  0.67757967  0.69337317  1
  O  O3089  1  0.21796767  0.67757967  0.86003983  1
  O  O3090  1  0.21796767  0.84424633  0.02670650  1
  O  O3091  1  0.21796767  0.84424633  0.19337317  1
  O  O3092  1  0.21796767  0.84424633  0.36003983  1
  O  O3093  1  0.21796767  0.84424633  0.52670650  1
  O  O3094  1  0.21796767  0.84424633  0.69337317  1
  O  O3095  1  0.21796767  0.84424633  0.86003983  1
  O  O3096  1  0.38463433  0.01091300  0.02670650  1
  O  O3097  1  0.38463433  0.01091300  0.19337317  1
  O  O3098  1  0.38463433  0.01091300  0.36003983  1
  O  O3099  1  0.38463433  0.01091300  0.52670650  1
  O  O3100  1  0.38463433  0.01091300  0.69337317  1
  O  O3101  1  0.38463433  0.01091300  0.86003983  1
  O  O3102  1  0.38463433  0.17757967  0.02670650  1
  O  O3103  1  0.38463433  0.17757967  0.19337317  1
  O  O3104  1  0.38463433  0.17757967  0.36003983  1
  O  O3105  1  0.38463433  0.17757967  0.52670650  1
  O  O3106  1  0.38463433  0.17757967  0.69337317  1
  O  O3107  1  0.38463433  0.17757967  0.86003983  1
  O  O3108  1  0.38463433  0.34424633  0.02670650  1
  O  O3109  1  0.38463433  0.34424633  0.19337317  1
  O  O3110  1  0.38463433  0.34424633  0.36003983  1
  O  O3111  1  0.38463433  0.34424633  0.52670650  1
  O  O3112  1  0.38463433  0.34424633  0.69337317  1
  O  O3113  1  0.38463433  0.34424633  0.86003983  1
  O  O3114  1  0.38463433  0.51091300  0.02670650  1
  O  O3115  1  0.38463433  0.51091300  0.19337317  1
  O  O3116  1  0.38463433  0.51091300  0.36003983  1
  O  O3117  1  0.38463433  0.51091300  0.52670650  1
  O  O3118  1  0.38463433  0.51091300  0.69337317  1
  O  O3119  1  0.38463433  0.51091300  0.86003983  1
  O  O3120  1  0.38463433  0.67757967  0.02670650  1
  O  O3121  1  0.38463433  0.67757967  0.19337317  1
  O  O3122  1  0.38463433  0.67757967  0.36003983  1
  O  O3123  1  0.38463433  0.67757967  0.52670650  1
  O  O3124  1  0.38463433  0.67757967  0.69337317  1
  O  O3125  1  0.38463433  0.67757967  0.86003983  1
  O  O3126  1  0.38463433  0.84424633  0.02670650  1
  O  O3127  1  0.38463433  0.84424633  0.19337317  1
  O  O3128  1  0.38463433  0.84424633  0.36003983  1
  O  O3129  1  0.38463433  0.84424633  0.52670650  1
  O  O3130  1  0.38463433  0.84424633  0.69337317  1
  O  O3131  1  0.38463433  0.84424633  0.86003983  1
  O  O3132  1  0.55130100  0.01091300  0.02670650  1
  O  O3133  1  0.55130100  0.01091300  0.19337317  1
  O  O3134  1  0.55130100  0.01091300  0.36003983  1
  O  O3135  1  0.55130100  0.01091300  0.52670650  1
  O  O3136  1  0.55130100  0.01091300  0.69337317  1
  O  O3137  1  0.55130100  0.01091300  0.86003983  1
  O  O3138  1  0.55130100  0.17757967  0.02670650  1
  O  O3139  1  0.55130100  0.17757967  0.19337317  1
  O  O3140  1  0.55130100  0.17757967  0.36003983  1
  O  O3141  1  0.55130100  0.17757967  0.52670650  1
  O  O3142  1  0.55130100  0.17757967  0.69337317  1
  O  O3143  1  0.55130100  0.17757967  0.86003983  1
  O  O3144  1  0.55130100  0.34424633  0.02670650  1
  O  O3145  1  0.55130100  0.34424633  0.19337317  1
  O  O3146  1  0.55130100  0.34424633  0.36003983  1
  O  O3147  1  0.55130100  0.34424633  0.52670650  1
  O  O3148  1  0.55130100  0.34424633  0.69337317  1
  O  O3149  1  0.55130100  0.34424633  0.86003983  1
  O  O3150  1  0.55130100  0.51091300  0.02670650  1
  O  O3151  1  0.55130100  0.51091300  0.19337317  1
  O  O3152  1  0.55130100  0.51091300  0.36003983  1
  O  O3153  1  0.55130100  0.51091300  0.52670650  1
  O  O3154  1  0.55130100  0.51091300  0.69337317  1
  O  O3155  1  0.55130100  0.51091300  0.86003983  1
  O  O3156  1  0.55130100  0.67757967  0.02670650  1
  O  O3157  1  0.55130100  0.67757967  0.19337317  1
  O  O3158  1  0.55130100  0.67757967  0.36003983  1
  O  O3159  1  0.55130100  0.67757967  0.52670650  1
  O  O3160  1  0.55130100  0.67757967  0.69337317  1
  O  O3161  1  0.55130100  0.67757967  0.86003983  1
  O  O3162  1  0.55130100  0.84424633  0.02670650  1
  O  O3163  1  0.55130100  0.84424633  0.19337317  1
  O  O3164  1  0.55130100  0.84424633  0.36003983  1
  O  O3165  1  0.55130100  0.84424633  0.52670650  1
  O  O3166  1  0.55130100  0.84424633  0.69337317  1
  O  O3167  1  0.55130100  0.84424633  0.86003983  1
  O  O3168  1  0.71796767  0.01091300  0.02670650  1
  O  O3169  1  0.71796767  0.01091300  0.19337317  1
  O  O3170  1  0.71796767  0.01091300  0.36003983  1
  O  O3171  1  0.71796767  0.01091300  0.52670650  1
  O  O3172  1  0.71796767  0.01091300  0.69337317  1
  O  O3173  1  0.71796767  0.01091300  0.86003983  1
  O  O3174  1  0.71796767  0.17757967  0.02670650  1
  O  O3175  1  0.71796767  0.17757967  0.19337317  1
  O  O3176  1  0.71796767  0.17757967  0.36003983  1
  O  O3177  1  0.71796767  0.17757967  0.52670650  1
  O  O3178  1  0.71796767  0.17757967  0.69337317  1
  O  O3179  1  0.71796767  0.17757967  0.86003983  1
  O  O3180  1  0.71796767  0.34424633  0.02670650  1
  O  O3181  1  0.71796767  0.34424633  0.19337317  1
  O  O3182  1  0.71796767  0.34424633  0.36003983  1
  O  O3183  1  0.71796767  0.34424633  0.52670650  1
  O  O3184  1  0.71796767  0.34424633  0.69337317  1
  O  O3185  1  0.71796767  0.34424633  0.86003983  1
  O  O3186  1  0.71796767  0.51091300  0.02670650  1
  O  O3187  1  0.71796767  0.51091300  0.19337317  1
  O  O3188  1  0.71796767  0.51091300  0.36003983  1
  O  O3189  1  0.71796767  0.51091300  0.52670650  1
  O  O3190  1  0.71796767  0.51091300  0.69337317  1
  O  O3191  1  0.71796767  0.51091300  0.86003983  1
  O  O3192  1  0.71796767  0.67757967  0.02670650  1
  O  O3193  1  0.71796767  0.67757967  0.19337317  1
  O  O3194  1  0.71796767  0.67757967  0.36003983  1
  O  O3195  1  0.71796767  0.67757967  0.52670650  1
  O  O3196  1  0.71796767  0.67757967  0.69337317  1
  O  O3197  1  0.71796767  0.67757967  0.86003983  1
  O  O3198  1  0.71796767  0.84424633  0.02670650  1
  O  O3199  1  0.71796767  0.84424633  0.19337317  1
  O  O3200  1  0.71796767  0.84424633  0.36003983  1
  O  O3201  1  0.71796767  0.84424633  0.52670650  1
  O  O3202  1  0.71796767  0.84424633  0.69337317  1
  O  O3203  1  0.71796767  0.84424633  0.86003983  1
  O  O3204  1  0.88463433  0.01091300  0.02670650  1
  O  O3205  1  0.88463433  0.01091300  0.19337317  1
  O  O3206  1  0.88463433  0.01091300  0.36003983  1
  O  O3207  1  0.88463433  0.01091300  0.52670650  1
  O  O3208  1  0.88463433  0.01091300  0.69337317  1
  O  O3209  1  0.88463433  0.01091300  0.86003983  1
  O  O3210  1  0.88463433  0.17757967  0.02670650  1
  O  O3211  1  0.88463433  0.17757967  0.19337317  1
  O  O3212  1  0.88463433  0.17757967  0.36003983  1
  O  O3213  1  0.88463433  0.17757967  0.52670650  1
  O  O3214  1  0.88463433  0.17757967  0.69337317  1
  O  O3215  1  0.88463433  0.17757967  0.86003983  1
  O  O3216  1  0.88463433  0.34424633  0.02670650  1
  O  O3217  1  0.88463433  0.34424633  0.19337317  1
  O  O3218  1  0.88463433  0.34424633  0.36003983  1
  O  O3219  1  0.88463433  0.34424633  0.52670650  1
  O  O3220  1  0.88463433  0.34424633  0.69337317  1
  O  O3221  1  0.88463433  0.34424633  0.86003983  1
  O  O3222  1  0.88463433  0.51091300  0.02670650  1
  O  O3223  1  0.88463433  0.51091300  0.19337317  1
  O  O3224  1  0.88463433  0.51091300  0.36003983  1
  O  O3225  1  0.88463433  0.51091300  0.52670650  1
  O  O3226  1  0.88463433  0.51091300  0.69337317  1
  O  O3227  1  0.88463433  0.51091300  0.86003983  1
  O  O3228  1  0.88463433  0.67757967  0.02670650  1
  O  O3229  1  0.88463433  0.67757967  0.19337317  1
  O  O3230  1  0.88463433  0.67757967  0.36003983  1
  O  O3231  1  0.88463433  0.67757967  0.52670650  1
  O  O3232  1  0.88463433  0.67757967  0.69337317  1
  O  O3233  1  0.88463433  0.67757967  0.86003983  1
  O  O3234  1  0.88463433  0.84424633  0.02670650  1
  O  O3235  1  0.88463433  0.84424633  0.19337317  1
  O  O3236  1  0.88463433  0.84424633  0.36003983  1
  O  O3237  1  0.88463433  0.84424633  0.52670650  1
  O  O3238  1  0.88463433  0.84424633  0.69337317  1
  O  O3239  1  0.88463433  0.84424633  0.86003983  1
