# generated using pymatgen
data_Ba10Li2Bi4O21
_symmetry_space_group_name_H-M   'P 1'
_cell_length_a   24.39499200
_cell_length_b   58.96679600
_cell_length_c   59.42399200
_cell_angle_alpha   90.00000000
_cell_angle_beta   90.00000000
_cell_angle_gamma   90.00000000
_symmetry_Int_Tables_number   1
_chemical_formula_structural   Ba10Li2Bi4O21
_chemical_formula_sum   'Ba1280 Li256 Bi512 O2688'
_cell_volume   85481.08665157
_cell_formula_units_Z   128
loop_
 _symmetry_equiv_pos_site_id
 _symmetry_equiv_pos_as_xyz
  1  'x, y, z'
loop_
 _atom_site_type_symbol
 _atom_site_label
 _atom_site_symmetry_multiplicity
 _atom_site_fract_x
 _atom_site_fract_y
 _atom_site_fract_z
 _atom_site_occupancy
  Ba  Ba0  1  0.00000000  0.00046300  0.02252725  1
  Ba  Ba1  1  0.00000000  0.00046300  0.27252725  1
  Ba  Ba2  1  0.00000000  0.00046300  0.52252725  1
  Ba  Ba3  1  0.00000000  0.00046300  0.77252725  1
  Ba  Ba4  1  0.00000000  0.25046300  0.02252725  1
  Ba  Ba5  1  0.00000000  0.25046300  0.27252725  1
  Ba  Ba6  1  0.00000000  0.25046300  0.52252725  1
  Ba  Ba7  1  0.00000000  0.25046300  0.77252725  1
  Ba  Ba8  1  0.00000000  0.50046300  0.02252725  1
  Ba  Ba9  1  0.00000000  0.50046300  0.27252725  1
  Ba  Ba10  1  0.00000000  0.50046300  0.52252725  1
  Ba  Ba11  1  0.00000000  0.50046300  0.77252725  1
  Ba  Ba12  1  0.00000000  0.75046300  0.02252725  1
  Ba  Ba13  1  0.00000000  0.75046300  0.27252725  1
  Ba  Ba14  1  0.00000000  0.75046300  0.52252725  1
  Ba  Ba15  1  0.00000000  0.75046300  0.77252725  1
  Ba  Ba16  1  0.25000000  0.00046300  0.02252725  1
  Ba  Ba17  1  0.25000000  0.00046300  0.27252725  1
  Ba  Ba18  1  0.25000000  0.00046300  0.52252725  1
  Ba  Ba19  1  0.25000000  0.00046300  0.77252725  1
  Ba  Ba20  1  0.25000000  0.25046300  0.02252725  1
  Ba  Ba21  1  0.25000000  0.25046300  0.27252725  1
  Ba  Ba22  1  0.25000000  0.25046300  0.52252725  1
  Ba  Ba23  1  0.25000000  0.25046300  0.77252725  1
  Ba  Ba24  1  0.25000000  0.50046300  0.02252725  1
  Ba  Ba25  1  0.25000000  0.50046300  0.27252725  1
  Ba  Ba26  1  0.25000000  0.50046300  0.52252725  1
  Ba  Ba27  1  0.25000000  0.50046300  0.77252725  1
  Ba  Ba28  1  0.25000000  0.75046300  0.02252725  1
  Ba  Ba29  1  0.25000000  0.75046300  0.27252725  1
  Ba  Ba30  1  0.25000000  0.75046300  0.52252725  1
  Ba  Ba31  1  0.25000000  0.75046300  0.77252725  1
  Ba  Ba32  1  0.50000000  0.00046300  0.02252725  1
  Ba  Ba33  1  0.50000000  0.00046300  0.27252725  1
  Ba  Ba34  1  0.50000000  0.00046300  0.52252725  1
  Ba  Ba35  1  0.50000000  0.00046300  0.77252725  1
  Ba  Ba36  1  0.50000000  0.25046300  0.02252725  1
  Ba  Ba37  1  0.50000000  0.25046300  0.27252725  1
  Ba  Ba38  1  0.50000000  0.25046300  0.52252725  1
  Ba  Ba39  1  0.50000000  0.25046300  0.77252725  1
  Ba  Ba40  1  0.50000000  0.50046300  0.02252725  1
  Ba  Ba41  1  0.50000000  0.50046300  0.27252725  1
  Ba  Ba42  1  0.50000000  0.50046300  0.52252725  1
  Ba  Ba43  1  0.50000000  0.50046300  0.77252725  1
  Ba  Ba44  1  0.50000000  0.75046300  0.02252725  1
  Ba  Ba45  1  0.50000000  0.75046300  0.27252725  1
  Ba  Ba46  1  0.50000000  0.75046300  0.52252725  1
  Ba  Ba47  1  0.50000000  0.75046300  0.77252725  1
  Ba  Ba48  1  0.75000000  0.00046300  0.02252725  1
  Ba  Ba49  1  0.75000000  0.00046300  0.27252725  1
  Ba  Ba50  1  0.75000000  0.00046300  0.52252725  1
  Ba  Ba51  1  0.75000000  0.00046300  0.77252725  1
  Ba  Ba52  1  0.75000000  0.25046300  0.02252725  1
  Ba  Ba53  1  0.75000000  0.25046300  0.27252725  1
  Ba  Ba54  1  0.75000000  0.25046300  0.52252725  1
  Ba  Ba55  1  0.75000000  0.25046300  0.77252725  1
  Ba  Ba56  1  0.75000000  0.50046300  0.02252725  1
  Ba  Ba57  1  0.75000000  0.50046300  0.27252725  1
  Ba  Ba58  1  0.75000000  0.50046300  0.52252725  1
  Ba  Ba59  1  0.75000000  0.50046300  0.77252725  1
  Ba  Ba60  1  0.75000000  0.75046300  0.02252725  1
  Ba  Ba61  1  0.75000000  0.75046300  0.27252725  1
  Ba  Ba62  1  0.75000000  0.75046300  0.52252725  1
  Ba  Ba63  1  0.75000000  0.75046300  0.77252725  1
  Ba  Ba64  1  0.00000000  0.01952700  0.14350200  1
  Ba  Ba65  1  0.00000000  0.01952700  0.39350200  1
  Ba  Ba66  1  0.00000000  0.01952700  0.64350200  1
  Ba  Ba67  1  0.00000000  0.01952700  0.89350200  1
  Ba  Ba68  1  0.00000000  0.26952700  0.14350200  1
  Ba  Ba69  1  0.00000000  0.26952700  0.39350200  1
  Ba  Ba70  1  0.00000000  0.26952700  0.64350200  1
  Ba  Ba71  1  0.00000000  0.26952700  0.89350200  1
  Ba  Ba72  1  0.00000000  0.51952700  0.14350200  1
  Ba  Ba73  1  0.00000000  0.51952700  0.39350200  1
  Ba  Ba74  1  0.00000000  0.51952700  0.64350200  1
  Ba  Ba75  1  0.00000000  0.51952700  0.89350200  1
  Ba  Ba76  1  0.00000000  0.76952700  0.14350200  1
  Ba  Ba77  1  0.00000000  0.76952700  0.39350200  1
  Ba  Ba78  1  0.00000000  0.76952700  0.64350200  1
  Ba  Ba79  1  0.00000000  0.76952700  0.89350200  1
  Ba  Ba80  1  0.25000000  0.01952700  0.14350200  1
  Ba  Ba81  1  0.25000000  0.01952700  0.39350200  1
  Ba  Ba82  1  0.25000000  0.01952700  0.64350200  1
  Ba  Ba83  1  0.25000000  0.01952700  0.89350200  1
  Ba  Ba84  1  0.25000000  0.26952700  0.14350200  1
  Ba  Ba85  1  0.25000000  0.26952700  0.39350200  1
  Ba  Ba86  1  0.25000000  0.26952700  0.64350200  1
  Ba  Ba87  1  0.25000000  0.26952700  0.89350200  1
  Ba  Ba88  1  0.25000000  0.51952700  0.14350200  1
  Ba  Ba89  1  0.25000000  0.51952700  0.39350200  1
  Ba  Ba90  1  0.25000000  0.51952700  0.64350200  1
  Ba  Ba91  1  0.25000000  0.51952700  0.89350200  1
  Ba  Ba92  1  0.25000000  0.76952700  0.14350200  1
  Ba  Ba93  1  0.25000000  0.76952700  0.39350200  1
  Ba  Ba94  1  0.25000000  0.76952700  0.64350200  1
  Ba  Ba95  1  0.25000000  0.76952700  0.89350200  1
  Ba  Ba96  1  0.50000000  0.01952700  0.14350200  1
  Ba  Ba97  1  0.50000000  0.01952700  0.39350200  1
  Ba  Ba98  1  0.50000000  0.01952700  0.64350200  1
  Ba  Ba99  1  0.50000000  0.01952700  0.89350200  1
  Ba  Ba100  1  0.50000000  0.26952700  0.14350200  1
  Ba  Ba101  1  0.50000000  0.26952700  0.39350200  1
  Ba  Ba102  1  0.50000000  0.26952700  0.64350200  1
  Ba  Ba103  1  0.50000000  0.26952700  0.89350200  1
  Ba  Ba104  1  0.50000000  0.51952700  0.14350200  1
  Ba  Ba105  1  0.50000000  0.51952700  0.39350200  1
  Ba  Ba106  1  0.50000000  0.51952700  0.64350200  1
  Ba  Ba107  1  0.50000000  0.51952700  0.89350200  1
  Ba  Ba108  1  0.50000000  0.76952700  0.14350200  1
  Ba  Ba109  1  0.50000000  0.76952700  0.39350200  1
  Ba  Ba110  1  0.50000000  0.76952700  0.64350200  1
  Ba  Ba111  1  0.50000000  0.76952700  0.89350200  1
  Ba  Ba112  1  0.75000000  0.01952700  0.14350200  1
  Ba  Ba113  1  0.75000000  0.01952700  0.39350200  1
  Ba  Ba114  1  0.75000000  0.01952700  0.64350200  1
  Ba  Ba115  1  0.75000000  0.01952700  0.89350200  1
  Ba  Ba116  1  0.75000000  0.26952700  0.14350200  1
  Ba  Ba117  1  0.75000000  0.26952700  0.39350200  1
  Ba  Ba118  1  0.75000000  0.26952700  0.64350200  1
  Ba  Ba119  1  0.75000000  0.26952700  0.89350200  1
  Ba  Ba120  1  0.75000000  0.51952700  0.14350200  1
  Ba  Ba121  1  0.75000000  0.51952700  0.39350200  1
  Ba  Ba122  1  0.75000000  0.51952700  0.64350200  1
  Ba  Ba123  1  0.75000000  0.51952700  0.89350200  1
  Ba  Ba124  1  0.75000000  0.76952700  0.14350200  1
  Ba  Ba125  1  0.75000000  0.76952700  0.39350200  1
  Ba  Ba126  1  0.75000000  0.76952700  0.64350200  1
  Ba  Ba127  1  0.75000000  0.76952700  0.89350200  1
  Ba  Ba128  1  0.12500000  0.04128000  0.05345600  1
  Ba  Ba129  1  0.12500000  0.04128000  0.30345600  1
  Ba  Ba130  1  0.12500000  0.04128000  0.55345600  1
  Ba  Ba131  1  0.12500000  0.04128000  0.80345600  1
  Ba  Ba132  1  0.12500000  0.29128000  0.05345600  1
  Ba  Ba133  1  0.12500000  0.29128000  0.30345600  1
  Ba  Ba134  1  0.12500000  0.29128000  0.55345600  1
  Ba  Ba135  1  0.12500000  0.29128000  0.80345600  1
  Ba  Ba136  1  0.12500000  0.54128000  0.05345600  1
  Ba  Ba137  1  0.12500000  0.54128000  0.30345600  1
  Ba  Ba138  1  0.12500000  0.54128000  0.55345600  1
  Ba  Ba139  1  0.12500000  0.54128000  0.80345600  1
  Ba  Ba140  1  0.12500000  0.79128000  0.05345600  1
  Ba  Ba141  1  0.12500000  0.79128000  0.30345600  1
  Ba  Ba142  1  0.12500000  0.79128000  0.55345600  1
  Ba  Ba143  1  0.12500000  0.79128000  0.80345600  1
  Ba  Ba144  1  0.37500000  0.04128000  0.05345600  1
  Ba  Ba145  1  0.37500000  0.04128000  0.30345600  1
  Ba  Ba146  1  0.37500000  0.04128000  0.55345600  1
  Ba  Ba147  1  0.37500000  0.04128000  0.80345600  1
  Ba  Ba148  1  0.37500000  0.29128000  0.05345600  1
  Ba  Ba149  1  0.37500000  0.29128000  0.30345600  1
  Ba  Ba150  1  0.37500000  0.29128000  0.55345600  1
  Ba  Ba151  1  0.37500000  0.29128000  0.80345600  1
  Ba  Ba152  1  0.37500000  0.54128000  0.05345600  1
  Ba  Ba153  1  0.37500000  0.54128000  0.30345600  1
  Ba  Ba154  1  0.37500000  0.54128000  0.55345600  1
  Ba  Ba155  1  0.37500000  0.54128000  0.80345600  1
  Ba  Ba156  1  0.37500000  0.79128000  0.05345600  1
  Ba  Ba157  1  0.37500000  0.79128000  0.30345600  1
  Ba  Ba158  1  0.37500000  0.79128000  0.55345600  1
  Ba  Ba159  1  0.37500000  0.79128000  0.80345600  1
  Ba  Ba160  1  0.62500000  0.04128000  0.05345600  1
  Ba  Ba161  1  0.62500000  0.04128000  0.30345600  1
  Ba  Ba162  1  0.62500000  0.04128000  0.55345600  1
  Ba  Ba163  1  0.62500000  0.04128000  0.80345600  1
  Ba  Ba164  1  0.62500000  0.29128000  0.05345600  1
  Ba  Ba165  1  0.62500000  0.29128000  0.30345600  1
  Ba  Ba166  1  0.62500000  0.29128000  0.55345600  1
  Ba  Ba167  1  0.62500000  0.29128000  0.80345600  1
  Ba  Ba168  1  0.62500000  0.54128000  0.05345600  1
  Ba  Ba169  1  0.62500000  0.54128000  0.30345600  1
  Ba  Ba170  1  0.62500000  0.54128000  0.55345600  1
  Ba  Ba171  1  0.62500000  0.54128000  0.80345600  1
  Ba  Ba172  1  0.62500000  0.79128000  0.05345600  1
  Ba  Ba173  1  0.62500000  0.79128000  0.30345600  1
  Ba  Ba174  1  0.62500000  0.79128000  0.55345600  1
  Ba  Ba175  1  0.62500000  0.79128000  0.80345600  1
  Ba  Ba176  1  0.87500000  0.04128000  0.05345600  1
  Ba  Ba177  1  0.87500000  0.04128000  0.30345600  1
  Ba  Ba178  1  0.87500000  0.04128000  0.55345600  1
  Ba  Ba179  1  0.87500000  0.04128000  0.80345600  1
  Ba  Ba180  1  0.87500000  0.29128000  0.05345600  1
  Ba  Ba181  1  0.87500000  0.29128000  0.30345600  1
  Ba  Ba182  1  0.87500000  0.29128000  0.55345600  1
  Ba  Ba183  1  0.87500000  0.29128000  0.80345600  1
  Ba  Ba184  1  0.87500000  0.54128000  0.05345600  1
  Ba  Ba185  1  0.87500000  0.54128000  0.30345600  1
  Ba  Ba186  1  0.87500000  0.54128000  0.55345600  1
  Ba  Ba187  1  0.87500000  0.54128000  0.80345600  1
  Ba  Ba188  1  0.87500000  0.79128000  0.05345600  1
  Ba  Ba189  1  0.87500000  0.79128000  0.30345600  1
  Ba  Ba190  1  0.87500000  0.79128000  0.55345600  1
  Ba  Ba191  1  0.87500000  0.79128000  0.80345600  1
  Ba  Ba192  1  0.12500000  0.04349675  0.19912675  1
  Ba  Ba193  1  0.12500000  0.04349675  0.44912675  1
  Ba  Ba194  1  0.12500000  0.04349675  0.69912675  1
  Ba  Ba195  1  0.12500000  0.04349675  0.94912675  1
  Ba  Ba196  1  0.12500000  0.29349675  0.19912675  1
  Ba  Ba197  1  0.12500000  0.29349675  0.44912675  1
  Ba  Ba198  1  0.12500000  0.29349675  0.69912675  1
  Ba  Ba199  1  0.12500000  0.29349675  0.94912675  1
  Ba  Ba200  1  0.12500000  0.54349675  0.19912675  1
  Ba  Ba201  1  0.12500000  0.54349675  0.44912675  1
  Ba  Ba202  1  0.12500000  0.54349675  0.69912675  1
  Ba  Ba203  1  0.12500000  0.54349675  0.94912675  1
  Ba  Ba204  1  0.12500000  0.79349675  0.19912675  1
  Ba  Ba205  1  0.12500000  0.79349675  0.44912675  1
  Ba  Ba206  1  0.12500000  0.79349675  0.69912675  1
  Ba  Ba207  1  0.12500000  0.79349675  0.94912675  1
  Ba  Ba208  1  0.37500000  0.04349675  0.19912675  1
  Ba  Ba209  1  0.37500000  0.04349675  0.44912675  1
  Ba  Ba210  1  0.37500000  0.04349675  0.69912675  1
  Ba  Ba211  1  0.37500000  0.04349675  0.94912675  1
  Ba  Ba212  1  0.37500000  0.29349675  0.19912675  1
  Ba  Ba213  1  0.37500000  0.29349675  0.44912675  1
  Ba  Ba214  1  0.37500000  0.29349675  0.69912675  1
  Ba  Ba215  1  0.37500000  0.29349675  0.94912675  1
  Ba  Ba216  1  0.37500000  0.54349675  0.19912675  1
  Ba  Ba217  1  0.37500000  0.54349675  0.44912675  1
  Ba  Ba218  1  0.37500000  0.54349675  0.69912675  1
  Ba  Ba219  1  0.37500000  0.54349675  0.94912675  1
  Ba  Ba220  1  0.37500000  0.79349675  0.19912675  1
  Ba  Ba221  1  0.37500000  0.79349675  0.44912675  1
  Ba  Ba222  1  0.37500000  0.79349675  0.69912675  1
  Ba  Ba223  1  0.37500000  0.79349675  0.94912675  1
  Ba  Ba224  1  0.62500000  0.04349675  0.19912675  1
  Ba  Ba225  1  0.62500000  0.04349675  0.44912675  1
  Ba  Ba226  1  0.62500000  0.04349675  0.69912675  1
  Ba  Ba227  1  0.62500000  0.04349675  0.94912675  1
  Ba  Ba228  1  0.62500000  0.29349675  0.19912675  1
  Ba  Ba229  1  0.62500000  0.29349675  0.44912675  1
  Ba  Ba230  1  0.62500000  0.29349675  0.69912675  1
  Ba  Ba231  1  0.62500000  0.29349675  0.94912675  1
  Ba  Ba232  1  0.62500000  0.54349675  0.19912675  1
  Ba  Ba233  1  0.62500000  0.54349675  0.44912675  1
  Ba  Ba234  1  0.62500000  0.54349675  0.69912675  1
  Ba  Ba235  1  0.62500000  0.54349675  0.94912675  1
  Ba  Ba236  1  0.62500000  0.79349675  0.19912675  1
  Ba  Ba237  1  0.62500000  0.79349675  0.44912675  1
  Ba  Ba238  1  0.62500000  0.79349675  0.69912675  1
  Ba  Ba239  1  0.62500000  0.79349675  0.94912675  1
  Ba  Ba240  1  0.87500000  0.04349675  0.19912675  1
  Ba  Ba241  1  0.87500000  0.04349675  0.44912675  1
  Ba  Ba242  1  0.87500000  0.04349675  0.69912675  1
  Ba  Ba243  1  0.87500000  0.04349675  0.94912675  1
  Ba  Ba244  1  0.87500000  0.29349675  0.19912675  1
  Ba  Ba245  1  0.87500000  0.29349675  0.44912675  1
  Ba  Ba246  1  0.87500000  0.29349675  0.69912675  1
  Ba  Ba247  1  0.87500000  0.29349675  0.94912675  1
  Ba  Ba248  1  0.87500000  0.54349675  0.19912675  1
  Ba  Ba249  1  0.87500000  0.54349675  0.44912675  1
  Ba  Ba250  1  0.87500000  0.54349675  0.69912675  1
  Ba  Ba251  1  0.87500000  0.54349675  0.94912675  1
  Ba  Ba252  1  0.87500000  0.79349675  0.19912675  1
  Ba  Ba253  1  0.87500000  0.79349675  0.44912675  1
  Ba  Ba254  1  0.87500000  0.79349675  0.69912675  1
  Ba  Ba255  1  0.87500000  0.79349675  0.94912675  1
  Ba  Ba256  1  0.12500000  0.06205550  0.12402625  1
  Ba  Ba257  1  0.12500000  0.06205550  0.37402625  1
  Ba  Ba258  1  0.12500000  0.06205550  0.62402625  1
  Ba  Ba259  1  0.12500000  0.06205550  0.87402625  1
  Ba  Ba260  1  0.12500000  0.31205550  0.12402625  1
  Ba  Ba261  1  0.12500000  0.31205550  0.37402625  1
  Ba  Ba262  1  0.12500000  0.31205550  0.62402625  1
  Ba  Ba263  1  0.12500000  0.31205550  0.87402625  1
  Ba  Ba264  1  0.12500000  0.56205550  0.12402625  1
  Ba  Ba265  1  0.12500000  0.56205550  0.37402625  1
  Ba  Ba266  1  0.12500000  0.56205550  0.62402625  1
  Ba  Ba267  1  0.12500000  0.56205550  0.87402625  1
  Ba  Ba268  1  0.12500000  0.81205550  0.12402625  1
  Ba  Ba269  1  0.12500000  0.81205550  0.37402625  1
  Ba  Ba270  1  0.12500000  0.81205550  0.62402625  1
  Ba  Ba271  1  0.12500000  0.81205550  0.87402625  1
  Ba  Ba272  1  0.37500000  0.06205550  0.12402625  1
  Ba  Ba273  1  0.37500000  0.06205550  0.37402625  1
  Ba  Ba274  1  0.37500000  0.06205550  0.62402625  1
  Ba  Ba275  1  0.37500000  0.06205550  0.87402625  1
  Ba  Ba276  1  0.37500000  0.31205550  0.12402625  1
  Ba  Ba277  1  0.37500000  0.31205550  0.37402625  1
  Ba  Ba278  1  0.37500000  0.31205550  0.62402625  1
  Ba  Ba279  1  0.37500000  0.31205550  0.87402625  1
  Ba  Ba280  1  0.37500000  0.56205550  0.12402625  1
  Ba  Ba281  1  0.37500000  0.56205550  0.37402625  1
  Ba  Ba282  1  0.37500000  0.56205550  0.62402625  1
  Ba  Ba283  1  0.37500000  0.56205550  0.87402625  1
  Ba  Ba284  1  0.37500000  0.81205550  0.12402625  1
  Ba  Ba285  1  0.37500000  0.81205550  0.37402625  1
  Ba  Ba286  1  0.37500000  0.81205550  0.62402625  1
  Ba  Ba287  1  0.37500000  0.81205550  0.87402625  1
  Ba  Ba288  1  0.62500000  0.06205550  0.12402625  1
  Ba  Ba289  1  0.62500000  0.06205550  0.37402625  1
  Ba  Ba290  1  0.62500000  0.06205550  0.62402625  1
  Ba  Ba291  1  0.62500000  0.06205550  0.87402625  1
  Ba  Ba292  1  0.62500000  0.31205550  0.12402625  1
  Ba  Ba293  1  0.62500000  0.31205550  0.37402625  1
  Ba  Ba294  1  0.62500000  0.31205550  0.62402625  1
  Ba  Ba295  1  0.62500000  0.31205550  0.87402625  1
  Ba  Ba296  1  0.62500000  0.56205550  0.12402625  1
  Ba  Ba297  1  0.62500000  0.56205550  0.37402625  1
  Ba  Ba298  1  0.62500000  0.56205550  0.62402625  1
  Ba  Ba299  1  0.62500000  0.56205550  0.87402625  1
  Ba  Ba300  1  0.62500000  0.81205550  0.12402625  1
  Ba  Ba301  1  0.62500000  0.81205550  0.37402625  1
  Ba  Ba302  1  0.62500000  0.81205550  0.62402625  1
  Ba  Ba303  1  0.62500000  0.81205550  0.87402625  1
  Ba  Ba304  1  0.87500000  0.06205550  0.12402625  1
  Ba  Ba305  1  0.87500000  0.06205550  0.37402625  1
  Ba  Ba306  1  0.87500000  0.06205550  0.62402625  1
  Ba  Ba307  1  0.87500000  0.06205550  0.87402625  1
  Ba  Ba308  1  0.87500000  0.31205550  0.12402625  1
  Ba  Ba309  1  0.87500000  0.31205550  0.37402625  1
  Ba  Ba310  1  0.87500000  0.31205550  0.62402625  1
  Ba  Ba311  1  0.87500000  0.31205550  0.87402625  1
  Ba  Ba312  1  0.87500000  0.56205550  0.12402625  1
  Ba  Ba313  1  0.87500000  0.56205550  0.37402625  1
  Ba  Ba314  1  0.87500000  0.56205550  0.62402625  1
  Ba  Ba315  1  0.87500000  0.56205550  0.87402625  1
  Ba  Ba316  1  0.87500000  0.81205550  0.12402625  1
  Ba  Ba317  1  0.87500000  0.81205550  0.37402625  1
  Ba  Ba318  1  0.87500000  0.81205550  0.62402625  1
  Ba  Ba319  1  0.87500000  0.81205550  0.87402625  1
  Ba  Ba320  1  0.00000000  0.06222675  0.24925375  1
  Ba  Ba321  1  0.00000000  0.06222675  0.49925375  1
  Ba  Ba322  1  0.00000000  0.06222675  0.74925375  1
  Ba  Ba323  1  0.00000000  0.06222675  0.99925375  1
  Ba  Ba324  1  0.00000000  0.31222675  0.24925375  1
  Ba  Ba325  1  0.00000000  0.31222675  0.49925375  1
  Ba  Ba326  1  0.00000000  0.31222675  0.74925375  1
  Ba  Ba327  1  0.00000000  0.31222675  0.99925375  1
  Ba  Ba328  1  0.00000000  0.56222675  0.24925375  1
  Ba  Ba329  1  0.00000000  0.56222675  0.49925375  1
  Ba  Ba330  1  0.00000000  0.56222675  0.74925375  1
  Ba  Ba331  1  0.00000000  0.56222675  0.99925375  1
  Ba  Ba332  1  0.00000000  0.81222675  0.24925375  1
  Ba  Ba333  1  0.00000000  0.81222675  0.49925375  1
  Ba  Ba334  1  0.00000000  0.81222675  0.74925375  1
  Ba  Ba335  1  0.00000000  0.81222675  0.99925375  1
  Ba  Ba336  1  0.25000000  0.06222675  0.24925375  1
  Ba  Ba337  1  0.25000000  0.06222675  0.49925375  1
  Ba  Ba338  1  0.25000000  0.06222675  0.74925375  1
  Ba  Ba339  1  0.25000000  0.06222675  0.99925375  1
  Ba  Ba340  1  0.25000000  0.31222675  0.24925375  1
  Ba  Ba341  1  0.25000000  0.31222675  0.49925375  1
  Ba  Ba342  1  0.25000000  0.31222675  0.74925375  1
  Ba  Ba343  1  0.25000000  0.31222675  0.99925375  1
  Ba  Ba344  1  0.25000000  0.56222675  0.24925375  1
  Ba  Ba345  1  0.25000000  0.56222675  0.49925375  1
  Ba  Ba346  1  0.25000000  0.56222675  0.74925375  1
  Ba  Ba347  1  0.25000000  0.56222675  0.99925375  1
  Ba  Ba348  1  0.25000000  0.81222675  0.24925375  1
  Ba  Ba349  1  0.25000000  0.81222675  0.49925375  1
  Ba  Ba350  1  0.25000000  0.81222675  0.74925375  1
  Ba  Ba351  1  0.25000000  0.81222675  0.99925375  1
  Ba  Ba352  1  0.50000000  0.06222675  0.24925375  1
  Ba  Ba353  1  0.50000000  0.06222675  0.49925375  1
  Ba  Ba354  1  0.50000000  0.06222675  0.74925375  1
  Ba  Ba355  1  0.50000000  0.06222675  0.99925375  1
  Ba  Ba356  1  0.50000000  0.31222675  0.24925375  1
  Ba  Ba357  1  0.50000000  0.31222675  0.49925375  1
  Ba  Ba358  1  0.50000000  0.31222675  0.74925375  1
  Ba  Ba359  1  0.50000000  0.31222675  0.99925375  1
  Ba  Ba360  1  0.50000000  0.56222675  0.24925375  1
  Ba  Ba361  1  0.50000000  0.56222675  0.49925375  1
  Ba  Ba362  1  0.50000000  0.56222675  0.74925375  1
  Ba  Ba363  1  0.50000000  0.56222675  0.99925375  1
  Ba  Ba364  1  0.50000000  0.81222675  0.24925375  1
  Ba  Ba365  1  0.50000000  0.81222675  0.49925375  1
  Ba  Ba366  1  0.50000000  0.81222675  0.74925375  1
  Ba  Ba367  1  0.50000000  0.81222675  0.99925375  1
  Ba  Ba368  1  0.75000000  0.06222675  0.24925375  1
  Ba  Ba369  1  0.75000000  0.06222675  0.49925375  1
  Ba  Ba370  1  0.75000000  0.06222675  0.74925375  1
  Ba  Ba371  1  0.75000000  0.06222675  0.99925375  1
  Ba  Ba372  1  0.75000000  0.31222675  0.24925375  1
  Ba  Ba373  1  0.75000000  0.31222675  0.49925375  1
  Ba  Ba374  1  0.75000000  0.31222675  0.74925375  1
  Ba  Ba375  1  0.75000000  0.31222675  0.99925375  1
  Ba  Ba376  1  0.75000000  0.56222675  0.24925375  1
  Ba  Ba377  1  0.75000000  0.56222675  0.49925375  1
  Ba  Ba378  1  0.75000000  0.56222675  0.74925375  1
  Ba  Ba379  1  0.75000000  0.56222675  0.99925375  1
  Ba  Ba380  1  0.75000000  0.81222675  0.24925375  1
  Ba  Ba381  1  0.75000000  0.81222675  0.49925375  1
  Ba  Ba382  1  0.75000000  0.81222675  0.74925375  1
  Ba  Ba383  1  0.75000000  0.81222675  0.99925375  1
  Ba  Ba384  1  0.00000000  0.08089150  0.07460125  1
  Ba  Ba385  1  0.00000000  0.08089150  0.32460125  1
  Ba  Ba386  1  0.00000000  0.08089150  0.57460125  1
  Ba  Ba387  1  0.00000000  0.08089150  0.82460125  1
  Ba  Ba388  1  0.00000000  0.33089150  0.07460125  1
  Ba  Ba389  1  0.00000000  0.33089150  0.32460125  1
  Ba  Ba390  1  0.00000000  0.33089150  0.57460125  1
  Ba  Ba391  1  0.00000000  0.33089150  0.82460125  1
  Ba  Ba392  1  0.00000000  0.58089150  0.07460125  1
  Ba  Ba393  1  0.00000000  0.58089150  0.32460125  1
  Ba  Ba394  1  0.00000000  0.58089150  0.57460125  1
  Ba  Ba395  1  0.00000000  0.58089150  0.82460125  1
  Ba  Ba396  1  0.00000000  0.83089150  0.07460125  1
  Ba  Ba397  1  0.00000000  0.83089150  0.32460125  1
  Ba  Ba398  1  0.00000000  0.83089150  0.57460125  1
  Ba  Ba399  1  0.00000000  0.83089150  0.82460125  1
  Ba  Ba400  1  0.25000000  0.08089150  0.07460125  1
  Ba  Ba401  1  0.25000000  0.08089150  0.32460125  1
  Ba  Ba402  1  0.25000000  0.08089150  0.57460125  1
  Ba  Ba403  1  0.25000000  0.08089150  0.82460125  1
  Ba  Ba404  1  0.25000000  0.33089150  0.07460125  1
  Ba  Ba405  1  0.25000000  0.33089150  0.32460125  1
  Ba  Ba406  1  0.25000000  0.33089150  0.57460125  1
  Ba  Ba407  1  0.25000000  0.33089150  0.82460125  1
  Ba  Ba408  1  0.25000000  0.58089150  0.07460125  1
  Ba  Ba409  1  0.25000000  0.58089150  0.32460125  1
  Ba  Ba410  1  0.25000000  0.58089150  0.57460125  1
  Ba  Ba411  1  0.25000000  0.58089150  0.82460125  1
  Ba  Ba412  1  0.25000000  0.83089150  0.07460125  1
  Ba  Ba413  1  0.25000000  0.83089150  0.32460125  1
  Ba  Ba414  1  0.25000000  0.83089150  0.57460125  1
  Ba  Ba415  1  0.25000000  0.83089150  0.82460125  1
  Ba  Ba416  1  0.50000000  0.08089150  0.07460125  1
  Ba  Ba417  1  0.50000000  0.08089150  0.32460125  1
  Ba  Ba418  1  0.50000000  0.08089150  0.57460125  1
  Ba  Ba419  1  0.50000000  0.08089150  0.82460125  1
  Ba  Ba420  1  0.50000000  0.33089150  0.07460125  1
  Ba  Ba421  1  0.50000000  0.33089150  0.32460125  1
  Ba  Ba422  1  0.50000000  0.33089150  0.57460125  1
  Ba  Ba423  1  0.50000000  0.33089150  0.82460125  1
  Ba  Ba424  1  0.50000000  0.58089150  0.07460125  1
  Ba  Ba425  1  0.50000000  0.58089150  0.32460125  1
  Ba  Ba426  1  0.50000000  0.58089150  0.57460125  1
  Ba  Ba427  1  0.50000000  0.58089150  0.82460125  1
  Ba  Ba428  1  0.50000000  0.83089150  0.07460125  1
  Ba  Ba429  1  0.50000000  0.83089150  0.32460125  1
  Ba  Ba430  1  0.50000000  0.83089150  0.57460125  1
  Ba  Ba431  1  0.50000000  0.83089150  0.82460125  1
  Ba  Ba432  1  0.75000000  0.08089150  0.07460125  1
  Ba  Ba433  1  0.75000000  0.08089150  0.32460125  1
  Ba  Ba434  1  0.75000000  0.08089150  0.57460125  1
  Ba  Ba435  1  0.75000000  0.08089150  0.82460125  1
  Ba  Ba436  1  0.75000000  0.33089150  0.07460125  1
  Ba  Ba437  1  0.75000000  0.33089150  0.32460125  1
  Ba  Ba438  1  0.75000000  0.33089150  0.57460125  1
  Ba  Ba439  1  0.75000000  0.33089150  0.82460125  1
  Ba  Ba440  1  0.75000000  0.58089150  0.07460125  1
  Ba  Ba441  1  0.75000000  0.58089150  0.32460125  1
  Ba  Ba442  1  0.75000000  0.58089150  0.57460125  1
  Ba  Ba443  1  0.75000000  0.58089150  0.82460125  1
  Ba  Ba444  1  0.75000000  0.83089150  0.07460125  1
  Ba  Ba445  1  0.75000000  0.83089150  0.32460125  1
  Ba  Ba446  1  0.75000000  0.83089150  0.57460125  1
  Ba  Ba447  1  0.75000000  0.83089150  0.82460125  1
  Ba  Ba448  1  0.00000000  0.08575000  0.17725600  1
  Ba  Ba449  1  0.00000000  0.08575000  0.42725600  1
  Ba  Ba450  1  0.00000000  0.08575000  0.67725600  1
  Ba  Ba451  1  0.00000000  0.08575000  0.92725600  1
  Ba  Ba452  1  0.00000000  0.33575000  0.17725600  1
  Ba  Ba453  1  0.00000000  0.33575000  0.42725600  1
  Ba  Ba454  1  0.00000000  0.33575000  0.67725600  1
  Ba  Ba455  1  0.00000000  0.33575000  0.92725600  1
  Ba  Ba456  1  0.00000000  0.58575000  0.17725600  1
  Ba  Ba457  1  0.00000000  0.58575000  0.42725600  1
  Ba  Ba458  1  0.00000000  0.58575000  0.67725600  1
  Ba  Ba459  1  0.00000000  0.58575000  0.92725600  1
  Ba  Ba460  1  0.00000000  0.83575000  0.17725600  1
  Ba  Ba461  1  0.00000000  0.83575000  0.42725600  1
  Ba  Ba462  1  0.00000000  0.83575000  0.67725600  1
  Ba  Ba463  1  0.00000000  0.83575000  0.92725600  1
  Ba  Ba464  1  0.25000000  0.08575000  0.17725600  1
  Ba  Ba465  1  0.25000000  0.08575000  0.42725600  1
  Ba  Ba466  1  0.25000000  0.08575000  0.67725600  1
  Ba  Ba467  1  0.25000000  0.08575000  0.92725600  1
  Ba  Ba468  1  0.25000000  0.33575000  0.17725600  1
  Ba  Ba469  1  0.25000000  0.33575000  0.42725600  1
  Ba  Ba470  1  0.25000000  0.33575000  0.67725600  1
  Ba  Ba471  1  0.25000000  0.33575000  0.92725600  1
  Ba  Ba472  1  0.25000000  0.58575000  0.17725600  1
  Ba  Ba473  1  0.25000000  0.58575000  0.42725600  1
  Ba  Ba474  1  0.25000000  0.58575000  0.67725600  1
  Ba  Ba475  1  0.25000000  0.58575000  0.92725600  1
  Ba  Ba476  1  0.25000000  0.83575000  0.17725600  1
  Ba  Ba477  1  0.25000000  0.83575000  0.42725600  1
  Ba  Ba478  1  0.25000000  0.83575000  0.67725600  1
  Ba  Ba479  1  0.25000000  0.83575000  0.92725600  1
  Ba  Ba480  1  0.50000000  0.08575000  0.17725600  1
  Ba  Ba481  1  0.50000000  0.08575000  0.42725600  1
  Ba  Ba482  1  0.50000000  0.08575000  0.67725600  1
  Ba  Ba483  1  0.50000000  0.08575000  0.92725600  1
  Ba  Ba484  1  0.50000000  0.33575000  0.17725600  1
  Ba  Ba485  1  0.50000000  0.33575000  0.42725600  1
  Ba  Ba486  1  0.50000000  0.33575000  0.67725600  1
  Ba  Ba487  1  0.50000000  0.33575000  0.92725600  1
  Ba  Ba488  1  0.50000000  0.58575000  0.17725600  1
  Ba  Ba489  1  0.50000000  0.58575000  0.42725600  1
  Ba  Ba490  1  0.50000000  0.58575000  0.67725600  1
  Ba  Ba491  1  0.50000000  0.58575000  0.92725600  1
  Ba  Ba492  1  0.50000000  0.83575000  0.17725600  1
  Ba  Ba493  1  0.50000000  0.83575000  0.42725600  1
  Ba  Ba494  1  0.50000000  0.83575000  0.67725600  1
  Ba  Ba495  1  0.50000000  0.83575000  0.92725600  1
  Ba  Ba496  1  0.75000000  0.08575000  0.17725600  1
  Ba  Ba497  1  0.75000000  0.08575000  0.42725600  1
  Ba  Ba498  1  0.75000000  0.08575000  0.67725600  1
  Ba  Ba499  1  0.75000000  0.08575000  0.92725600  1
  Ba  Ba500  1  0.75000000  0.33575000  0.17725600  1
  Ba  Ba501  1  0.75000000  0.33575000  0.42725600  1
  Ba  Ba502  1  0.75000000  0.33575000  0.67725600  1
  Ba  Ba503  1  0.75000000  0.33575000  0.92725600  1
  Ba  Ba504  1  0.75000000  0.58575000  0.17725600  1
  Ba  Ba505  1  0.75000000  0.58575000  0.42725600  1
  Ba  Ba506  1  0.75000000  0.58575000  0.67725600  1
  Ba  Ba507  1  0.75000000  0.58575000  0.92725600  1
  Ba  Ba508  1  0.75000000  0.83575000  0.17725600  1
  Ba  Ba509  1  0.75000000  0.83575000  0.42725600  1
  Ba  Ba510  1  0.75000000  0.83575000  0.67725600  1
  Ba  Ba511  1  0.75000000  0.83575000  0.92725600  1
  Ba  Ba512  1  0.12500000  0.10172775  0.02071025  1
  Ba  Ba513  1  0.12500000  0.10172775  0.27071025  1
  Ba  Ba514  1  0.12500000  0.10172775  0.52071025  1
  Ba  Ba515  1  0.12500000  0.10172775  0.77071025  1
  Ba  Ba516  1  0.12500000  0.35172775  0.02071025  1
  Ba  Ba517  1  0.12500000  0.35172775  0.27071025  1
  Ba  Ba518  1  0.12500000  0.35172775  0.52071025  1
  Ba  Ba519  1  0.12500000  0.35172775  0.77071025  1
  Ba  Ba520  1  0.12500000  0.60172775  0.02071025  1
  Ba  Ba521  1  0.12500000  0.60172775  0.27071025  1
  Ba  Ba522  1  0.12500000  0.60172775  0.52071025  1
  Ba  Ba523  1  0.12500000  0.60172775  0.77071025  1
  Ba  Ba524  1  0.12500000  0.85172775  0.02071025  1
  Ba  Ba525  1  0.12500000  0.85172775  0.27071025  1
  Ba  Ba526  1  0.12500000  0.85172775  0.52071025  1
  Ba  Ba527  1  0.12500000  0.85172775  0.77071025  1
  Ba  Ba528  1  0.37500000  0.10172775  0.02071025  1
  Ba  Ba529  1  0.37500000  0.10172775  0.27071025  1
  Ba  Ba530  1  0.37500000  0.10172775  0.52071025  1
  Ba  Ba531  1  0.37500000  0.10172775  0.77071025  1
  Ba  Ba532  1  0.37500000  0.35172775  0.02071025  1
  Ba  Ba533  1  0.37500000  0.35172775  0.27071025  1
  Ba  Ba534  1  0.37500000  0.35172775  0.52071025  1
  Ba  Ba535  1  0.37500000  0.35172775  0.77071025  1
  Ba  Ba536  1  0.37500000  0.60172775  0.02071025  1
  Ba  Ba537  1  0.37500000  0.60172775  0.27071025  1
  Ba  Ba538  1  0.37500000  0.60172775  0.52071025  1
  Ba  Ba539  1  0.37500000  0.60172775  0.77071025  1
  Ba  Ba540  1  0.37500000  0.85172775  0.02071025  1
  Ba  Ba541  1  0.37500000  0.85172775  0.27071025  1
  Ba  Ba542  1  0.37500000  0.85172775  0.52071025  1
  Ba  Ba543  1  0.37500000  0.85172775  0.77071025  1
  Ba  Ba544  1  0.62500000  0.10172775  0.02071025  1
  Ba  Ba545  1  0.62500000  0.10172775  0.27071025  1
  Ba  Ba546  1  0.62500000  0.10172775  0.52071025  1
  Ba  Ba547  1  0.62500000  0.10172775  0.77071025  1
  Ba  Ba548  1  0.62500000  0.35172775  0.02071025  1
  Ba  Ba549  1  0.62500000  0.35172775  0.27071025  1
  Ba  Ba550  1  0.62500000  0.35172775  0.52071025  1
  Ba  Ba551  1  0.62500000  0.35172775  0.77071025  1
  Ba  Ba552  1  0.62500000  0.60172775  0.02071025  1
  Ba  Ba553  1  0.62500000  0.60172775  0.27071025  1
  Ba  Ba554  1  0.62500000  0.60172775  0.52071025  1
  Ba  Ba555  1  0.62500000  0.60172775  0.77071025  1
  Ba  Ba556  1  0.62500000  0.85172775  0.02071025  1
  Ba  Ba557  1  0.62500000  0.85172775  0.27071025  1
  Ba  Ba558  1  0.62500000  0.85172775  0.52071025  1
  Ba  Ba559  1  0.62500000  0.85172775  0.77071025  1
  Ba  Ba560  1  0.87500000  0.10172775  0.02071025  1
  Ba  Ba561  1  0.87500000  0.10172775  0.27071025  1
  Ba  Ba562  1  0.87500000  0.10172775  0.52071025  1
  Ba  Ba563  1  0.87500000  0.10172775  0.77071025  1
  Ba  Ba564  1  0.87500000  0.35172775  0.02071025  1
  Ba  Ba565  1  0.87500000  0.35172775  0.27071025  1
  Ba  Ba566  1  0.87500000  0.35172775  0.52071025  1
  Ba  Ba567  1  0.87500000  0.35172775  0.77071025  1
  Ba  Ba568  1  0.87500000  0.60172775  0.02071025  1
  Ba  Ba569  1  0.87500000  0.60172775  0.27071025  1
  Ba  Ba570  1  0.87500000  0.60172775  0.52071025  1
  Ba  Ba571  1  0.87500000  0.60172775  0.77071025  1
  Ba  Ba572  1  0.87500000  0.85172775  0.02071025  1
  Ba  Ba573  1  0.87500000  0.85172775  0.27071025  1
  Ba  Ba574  1  0.87500000  0.85172775  0.52071025  1
  Ba  Ba575  1  0.87500000  0.85172775  0.77071025  1
  Ba  Ba576  1  0.12500000  0.12374375  0.14663725  1
  Ba  Ba577  1  0.12500000  0.12374375  0.39663725  1
  Ba  Ba578  1  0.12500000  0.12374375  0.64663725  1
  Ba  Ba579  1  0.12500000  0.12374375  0.89663725  1
  Ba  Ba580  1  0.12500000  0.37374375  0.14663725  1
  Ba  Ba581  1  0.12500000  0.37374375  0.39663725  1
  Ba  Ba582  1  0.12500000  0.37374375  0.64663725  1
  Ba  Ba583  1  0.12500000  0.37374375  0.89663725  1
  Ba  Ba584  1  0.12500000  0.62374375  0.14663725  1
  Ba  Ba585  1  0.12500000  0.62374375  0.39663725  1
  Ba  Ba586  1  0.12500000  0.62374375  0.64663725  1
  Ba  Ba587  1  0.12500000  0.62374375  0.89663725  1
  Ba  Ba588  1  0.12500000  0.87374375  0.14663725  1
  Ba  Ba589  1  0.12500000  0.87374375  0.39663725  1
  Ba  Ba590  1  0.12500000  0.87374375  0.64663725  1
  Ba  Ba591  1  0.12500000  0.87374375  0.89663725  1
  Ba  Ba592  1  0.37500000  0.12374375  0.14663725  1
  Ba  Ba593  1  0.37500000  0.12374375  0.39663725  1
  Ba  Ba594  1  0.37500000  0.12374375  0.64663725  1
  Ba  Ba595  1  0.37500000  0.12374375  0.89663725  1
  Ba  Ba596  1  0.37500000  0.37374375  0.14663725  1
  Ba  Ba597  1  0.37500000  0.37374375  0.39663725  1
  Ba  Ba598  1  0.37500000  0.37374375  0.64663725  1
  Ba  Ba599  1  0.37500000  0.37374375  0.89663725  1
  Ba  Ba600  1  0.37500000  0.62374375  0.14663725  1
  Ba  Ba601  1  0.37500000  0.62374375  0.39663725  1
  Ba  Ba602  1  0.37500000  0.62374375  0.64663725  1
  Ba  Ba603  1  0.37500000  0.62374375  0.89663725  1
  Ba  Ba604  1  0.37500000  0.87374375  0.14663725  1
  Ba  Ba605  1  0.37500000  0.87374375  0.39663725  1
  Ba  Ba606  1  0.37500000  0.87374375  0.64663725  1
  Ba  Ba607  1  0.37500000  0.87374375  0.89663725  1
  Ba  Ba608  1  0.62500000  0.12374375  0.14663725  1
  Ba  Ba609  1  0.62500000  0.12374375  0.39663725  1
  Ba  Ba610  1  0.62500000  0.12374375  0.64663725  1
  Ba  Ba611  1  0.62500000  0.12374375  0.89663725  1
  Ba  Ba612  1  0.62500000  0.37374375  0.14663725  1
  Ba  Ba613  1  0.62500000  0.37374375  0.39663725  1
  Ba  Ba614  1  0.62500000  0.37374375  0.64663725  1
  Ba  Ba615  1  0.62500000  0.37374375  0.89663725  1
  Ba  Ba616  1  0.62500000  0.62374375  0.14663725  1
  Ba  Ba617  1  0.62500000  0.62374375  0.39663725  1
  Ba  Ba618  1  0.62500000  0.62374375  0.64663725  1
  Ba  Ba619  1  0.62500000  0.62374375  0.89663725  1
  Ba  Ba620  1  0.62500000  0.87374375  0.14663725  1
  Ba  Ba621  1  0.62500000  0.87374375  0.39663725  1
  Ba  Ba622  1  0.62500000  0.87374375  0.64663725  1
  Ba  Ba623  1  0.62500000  0.87374375  0.89663725  1
  Ba  Ba624  1  0.87500000  0.12374375  0.14663725  1
  Ba  Ba625  1  0.87500000  0.12374375  0.39663725  1
  Ba  Ba626  1  0.87500000  0.12374375  0.64663725  1
  Ba  Ba627  1  0.87500000  0.12374375  0.89663725  1
  Ba  Ba628  1  0.87500000  0.37374375  0.14663725  1
  Ba  Ba629  1  0.87500000  0.37374375  0.39663725  1
  Ba  Ba630  1  0.87500000  0.37374375  0.64663725  1
  Ba  Ba631  1  0.87500000  0.37374375  0.89663725  1
  Ba  Ba632  1  0.87500000  0.62374375  0.14663725  1
  Ba  Ba633  1  0.87500000  0.62374375  0.39663725  1
  Ba  Ba634  1  0.87500000  0.62374375  0.64663725  1
  Ba  Ba635  1  0.87500000  0.62374375  0.89663725  1
  Ba  Ba636  1  0.87500000  0.87374375  0.14663725  1
  Ba  Ba637  1  0.87500000  0.87374375  0.39663725  1
  Ba  Ba638  1  0.87500000  0.87374375  0.64663725  1
  Ba  Ba639  1  0.87500000  0.87374375  0.89663725  1
  Ba  Ba640  1  0.00000000  0.12546300  0.22747275  1
  Ba  Ba641  1  0.00000000  0.12546300  0.47747275  1
  Ba  Ba642  1  0.00000000  0.12546300  0.72747275  1
  Ba  Ba643  1  0.00000000  0.12546300  0.97747275  1
  Ba  Ba644  1  0.00000000  0.37546300  0.22747275  1
  Ba  Ba645  1  0.00000000  0.37546300  0.47747275  1
  Ba  Ba646  1  0.00000000  0.37546300  0.72747275  1
  Ba  Ba647  1  0.00000000  0.37546300  0.97747275  1
  Ba  Ba648  1  0.00000000  0.62546300  0.22747275  1
  Ba  Ba649  1  0.00000000  0.62546300  0.47747275  1
  Ba  Ba650  1  0.00000000  0.62546300  0.72747275  1
  Ba  Ba651  1  0.00000000  0.62546300  0.97747275  1
  Ba  Ba652  1  0.00000000  0.87546300  0.22747275  1
  Ba  Ba653  1  0.00000000  0.87546300  0.47747275  1
  Ba  Ba654  1  0.00000000  0.87546300  0.72747275  1
  Ba  Ba655  1  0.00000000  0.87546300  0.97747275  1
  Ba  Ba656  1  0.25000000  0.12546300  0.22747275  1
  Ba  Ba657  1  0.25000000  0.12546300  0.47747275  1
  Ba  Ba658  1  0.25000000  0.12546300  0.72747275  1
  Ba  Ba659  1  0.25000000  0.12546300  0.97747275  1
  Ba  Ba660  1  0.25000000  0.37546300  0.22747275  1
  Ba  Ba661  1  0.25000000  0.37546300  0.47747275  1
  Ba  Ba662  1  0.25000000  0.37546300  0.72747275  1
  Ba  Ba663  1  0.25000000  0.37546300  0.97747275  1
  Ba  Ba664  1  0.25000000  0.62546300  0.22747275  1
  Ba  Ba665  1  0.25000000  0.62546300  0.47747275  1
  Ba  Ba666  1  0.25000000  0.62546300  0.72747275  1
  Ba  Ba667  1  0.25000000  0.62546300  0.97747275  1
  Ba  Ba668  1  0.25000000  0.87546300  0.22747275  1
  Ba  Ba669  1  0.25000000  0.87546300  0.47747275  1
  Ba  Ba670  1  0.25000000  0.87546300  0.72747275  1
  Ba  Ba671  1  0.25000000  0.87546300  0.97747275  1
  Ba  Ba672  1  0.50000000  0.12546300  0.22747275  1
  Ba  Ba673  1  0.50000000  0.12546300  0.47747275  1
  Ba  Ba674  1  0.50000000  0.12546300  0.72747275  1
  Ba  Ba675  1  0.50000000  0.12546300  0.97747275  1
  Ba  Ba676  1  0.50000000  0.37546300  0.22747275  1
  Ba  Ba677  1  0.50000000  0.37546300  0.47747275  1
  Ba  Ba678  1  0.50000000  0.37546300  0.72747275  1
  Ba  Ba679  1  0.50000000  0.37546300  0.97747275  1
  Ba  Ba680  1  0.50000000  0.62546300  0.22747275  1
  Ba  Ba681  1  0.50000000  0.62546300  0.47747275  1
  Ba  Ba682  1  0.50000000  0.62546300  0.72747275  1
  Ba  Ba683  1  0.50000000  0.62546300  0.97747275  1
  Ba  Ba684  1  0.50000000  0.87546300  0.22747275  1
  Ba  Ba685  1  0.50000000  0.87546300  0.47747275  1
  Ba  Ba686  1  0.50000000  0.87546300  0.72747275  1
  Ba  Ba687  1  0.50000000  0.87546300  0.97747275  1
  Ba  Ba688  1  0.75000000  0.12546300  0.22747275  1
  Ba  Ba689  1  0.75000000  0.12546300  0.47747275  1
  Ba  Ba690  1  0.75000000  0.12546300  0.72747275  1
  Ba  Ba691  1  0.75000000  0.12546300  0.97747275  1
  Ba  Ba692  1  0.75000000  0.37546300  0.22747275  1
  Ba  Ba693  1  0.75000000  0.37546300  0.47747275  1
  Ba  Ba694  1  0.75000000  0.37546300  0.72747275  1
  Ba  Ba695  1  0.75000000  0.37546300  0.97747275  1
  Ba  Ba696  1  0.75000000  0.62546300  0.22747275  1
  Ba  Ba697  1  0.75000000  0.62546300  0.47747275  1
  Ba  Ba698  1  0.75000000  0.62546300  0.72747275  1
  Ba  Ba699  1  0.75000000  0.62546300  0.97747275  1
  Ba  Ba700  1  0.75000000  0.87546300  0.22747275  1
  Ba  Ba701  1  0.75000000  0.87546300  0.47747275  1
  Ba  Ba702  1  0.75000000  0.87546300  0.72747275  1
  Ba  Ba703  1  0.75000000  0.87546300  0.97747275  1
  Ba  Ba704  1  0.00000000  0.14452700  0.10649800  1
  Ba  Ba705  1  0.00000000  0.14452700  0.35649800  1
  Ba  Ba706  1  0.00000000  0.14452700  0.60649800  1
  Ba  Ba707  1  0.00000000  0.14452700  0.85649800  1
  Ba  Ba708  1  0.00000000  0.39452700  0.10649800  1
  Ba  Ba709  1  0.00000000  0.39452700  0.35649800  1
  Ba  Ba710  1  0.00000000  0.39452700  0.60649800  1
  Ba  Ba711  1  0.00000000  0.39452700  0.85649800  1
  Ba  Ba712  1  0.00000000  0.64452700  0.10649800  1
  Ba  Ba713  1  0.00000000  0.64452700  0.35649800  1
  Ba  Ba714  1  0.00000000  0.64452700  0.60649800  1
  Ba  Ba715  1  0.00000000  0.64452700  0.85649800  1
  Ba  Ba716  1  0.00000000  0.89452700  0.10649800  1
  Ba  Ba717  1  0.00000000  0.89452700  0.35649800  1
  Ba  Ba718  1  0.00000000  0.89452700  0.60649800  1
  Ba  Ba719  1  0.00000000  0.89452700  0.85649800  1
  Ba  Ba720  1  0.25000000  0.14452700  0.10649800  1
  Ba  Ba721  1  0.25000000  0.14452700  0.35649800  1
  Ba  Ba722  1  0.25000000  0.14452700  0.60649800  1
  Ba  Ba723  1  0.25000000  0.14452700  0.85649800  1
  Ba  Ba724  1  0.25000000  0.39452700  0.10649800  1
  Ba  Ba725  1  0.25000000  0.39452700  0.35649800  1
  Ba  Ba726  1  0.25000000  0.39452700  0.60649800  1
  Ba  Ba727  1  0.25000000  0.39452700  0.85649800  1
  Ba  Ba728  1  0.25000000  0.64452700  0.10649800  1
  Ba  Ba729  1  0.25000000  0.64452700  0.35649800  1
  Ba  Ba730  1  0.25000000  0.64452700  0.60649800  1
  Ba  Ba731  1  0.25000000  0.64452700  0.85649800  1
  Ba  Ba732  1  0.25000000  0.89452700  0.10649800  1
  Ba  Ba733  1  0.25000000  0.89452700  0.35649800  1
  Ba  Ba734  1  0.25000000  0.89452700  0.60649800  1
  Ba  Ba735  1  0.25000000  0.89452700  0.85649800  1
  Ba  Ba736  1  0.50000000  0.14452700  0.10649800  1
  Ba  Ba737  1  0.50000000  0.14452700  0.35649800  1
  Ba  Ba738  1  0.50000000  0.14452700  0.60649800  1
  Ba  Ba739  1  0.50000000  0.14452700  0.85649800  1
  Ba  Ba740  1  0.50000000  0.39452700  0.10649800  1
  Ba  Ba741  1  0.50000000  0.39452700  0.35649800  1
  Ba  Ba742  1  0.50000000  0.39452700  0.60649800  1
  Ba  Ba743  1  0.50000000  0.39452700  0.85649800  1
  Ba  Ba744  1  0.50000000  0.64452700  0.10649800  1
  Ba  Ba745  1  0.50000000  0.64452700  0.35649800  1
  Ba  Ba746  1  0.50000000  0.64452700  0.60649800  1
  Ba  Ba747  1  0.50000000  0.64452700  0.85649800  1
  Ba  Ba748  1  0.50000000  0.89452700  0.10649800  1
  Ba  Ba749  1  0.50000000  0.89452700  0.35649800  1
  Ba  Ba750  1  0.50000000  0.89452700  0.60649800  1
  Ba  Ba751  1  0.50000000  0.89452700  0.85649800  1
  Ba  Ba752  1  0.75000000  0.14452700  0.10649800  1
  Ba  Ba753  1  0.75000000  0.14452700  0.35649800  1
  Ba  Ba754  1  0.75000000  0.14452700  0.60649800  1
  Ba  Ba755  1  0.75000000  0.14452700  0.85649800  1
  Ba  Ba756  1  0.75000000  0.39452700  0.10649800  1
  Ba  Ba757  1  0.75000000  0.39452700  0.35649800  1
  Ba  Ba758  1  0.75000000  0.39452700  0.60649800  1
  Ba  Ba759  1  0.75000000  0.39452700  0.85649800  1
  Ba  Ba760  1  0.75000000  0.64452700  0.10649800  1
  Ba  Ba761  1  0.75000000  0.64452700  0.35649800  1
  Ba  Ba762  1  0.75000000  0.64452700  0.60649800  1
  Ba  Ba763  1  0.75000000  0.64452700  0.85649800  1
  Ba  Ba764  1  0.75000000  0.89452700  0.10649800  1
  Ba  Ba765  1  0.75000000  0.89452700  0.35649800  1
  Ba  Ba766  1  0.75000000  0.89452700  0.60649800  1
  Ba  Ba767  1  0.75000000  0.89452700  0.85649800  1
  Ba  Ba768  1  0.12500000  0.16628000  0.19654400  1
  Ba  Ba769  1  0.12500000  0.16628000  0.44654400  1
  Ba  Ba770  1  0.12500000  0.16628000  0.69654400  1
  Ba  Ba771  1  0.12500000  0.16628000  0.94654400  1
  Ba  Ba772  1  0.12500000  0.41628000  0.19654400  1
  Ba  Ba773  1  0.12500000  0.41628000  0.44654400  1
  Ba  Ba774  1  0.12500000  0.41628000  0.69654400  1
  Ba  Ba775  1  0.12500000  0.41628000  0.94654400  1
  Ba  Ba776  1  0.12500000  0.66628000  0.19654400  1
  Ba  Ba777  1  0.12500000  0.66628000  0.44654400  1
  Ba  Ba778  1  0.12500000  0.66628000  0.69654400  1
  Ba  Ba779  1  0.12500000  0.66628000  0.94654400  1
  Ba  Ba780  1  0.12500000  0.91628000  0.19654400  1
  Ba  Ba781  1  0.12500000  0.91628000  0.44654400  1
  Ba  Ba782  1  0.12500000  0.91628000  0.69654400  1
  Ba  Ba783  1  0.12500000  0.91628000  0.94654400  1
  Ba  Ba784  1  0.37500000  0.16628000  0.19654400  1
  Ba  Ba785  1  0.37500000  0.16628000  0.44654400  1
  Ba  Ba786  1  0.37500000  0.16628000  0.69654400  1
  Ba  Ba787  1  0.37500000  0.16628000  0.94654400  1
  Ba  Ba788  1  0.37500000  0.41628000  0.19654400  1
  Ba  Ba789  1  0.37500000  0.41628000  0.44654400  1
  Ba  Ba790  1  0.37500000  0.41628000  0.69654400  1
  Ba  Ba791  1  0.37500000  0.41628000  0.94654400  1
  Ba  Ba792  1  0.37500000  0.66628000  0.19654400  1
  Ba  Ba793  1  0.37500000  0.66628000  0.44654400  1
  Ba  Ba794  1  0.37500000  0.66628000  0.69654400  1
  Ba  Ba795  1  0.37500000  0.66628000  0.94654400  1
  Ba  Ba796  1  0.37500000  0.91628000  0.19654400  1
  Ba  Ba797  1  0.37500000  0.91628000  0.44654400  1
  Ba  Ba798  1  0.37500000  0.91628000  0.69654400  1
  Ba  Ba799  1  0.37500000  0.91628000  0.94654400  1
  Ba  Ba800  1  0.62500000  0.16628000  0.19654400  1
  Ba  Ba801  1  0.62500000  0.16628000  0.44654400  1
  Ba  Ba802  1  0.62500000  0.16628000  0.69654400  1
  Ba  Ba803  1  0.62500000  0.16628000  0.94654400  1
  Ba  Ba804  1  0.62500000  0.41628000  0.19654400  1
  Ba  Ba805  1  0.62500000  0.41628000  0.44654400  1
  Ba  Ba806  1  0.62500000  0.41628000  0.69654400  1
  Ba  Ba807  1  0.62500000  0.41628000  0.94654400  1
  Ba  Ba808  1  0.62500000  0.66628000  0.19654400  1
  Ba  Ba809  1  0.62500000  0.66628000  0.44654400  1
  Ba  Ba810  1  0.62500000  0.66628000  0.69654400  1
  Ba  Ba811  1  0.62500000  0.66628000  0.94654400  1
  Ba  Ba812  1  0.62500000  0.91628000  0.19654400  1
  Ba  Ba813  1  0.62500000  0.91628000  0.44654400  1
  Ba  Ba814  1  0.62500000  0.91628000  0.69654400  1
  Ba  Ba815  1  0.62500000  0.91628000  0.94654400  1
  Ba  Ba816  1  0.87500000  0.16628000  0.19654400  1
  Ba  Ba817  1  0.87500000  0.16628000  0.44654400  1
  Ba  Ba818  1  0.87500000  0.16628000  0.69654400  1
  Ba  Ba819  1  0.87500000  0.16628000  0.94654400  1
  Ba  Ba820  1  0.87500000  0.41628000  0.19654400  1
  Ba  Ba821  1  0.87500000  0.41628000  0.44654400  1
  Ba  Ba822  1  0.87500000  0.41628000  0.69654400  1
  Ba  Ba823  1  0.87500000  0.41628000  0.94654400  1
  Ba  Ba824  1  0.87500000  0.66628000  0.19654400  1
  Ba  Ba825  1  0.87500000  0.66628000  0.44654400  1
  Ba  Ba826  1  0.87500000  0.66628000  0.69654400  1
  Ba  Ba827  1  0.87500000  0.66628000  0.94654400  1
  Ba  Ba828  1  0.87500000  0.91628000  0.19654400  1
  Ba  Ba829  1  0.87500000  0.91628000  0.44654400  1
  Ba  Ba830  1  0.87500000  0.91628000  0.69654400  1
  Ba  Ba831  1  0.87500000  0.91628000  0.94654400  1
  Ba  Ba832  1  0.12500000  0.16849675  0.05087325  1
  Ba  Ba833  1  0.12500000  0.16849675  0.30087325  1
  Ba  Ba834  1  0.12500000  0.16849675  0.55087325  1
  Ba  Ba835  1  0.12500000  0.16849675  0.80087325  1
  Ba  Ba836  1  0.12500000  0.41849675  0.05087325  1
  Ba  Ba837  1  0.12500000  0.41849675  0.30087325  1
  Ba  Ba838  1  0.12500000  0.41849675  0.55087325  1
  Ba  Ba839  1  0.12500000  0.41849675  0.80087325  1
  Ba  Ba840  1  0.12500000  0.66849675  0.05087325  1
  Ba  Ba841  1  0.12500000  0.66849675  0.30087325  1
  Ba  Ba842  1  0.12500000  0.66849675  0.55087325  1
  Ba  Ba843  1  0.12500000  0.66849675  0.80087325  1
  Ba  Ba844  1  0.12500000  0.91849675  0.05087325  1
  Ba  Ba845  1  0.12500000  0.91849675  0.30087325  1
  Ba  Ba846  1  0.12500000  0.91849675  0.55087325  1
  Ba  Ba847  1  0.12500000  0.91849675  0.80087325  1
  Ba  Ba848  1  0.37500000  0.16849675  0.05087325  1
  Ba  Ba849  1  0.37500000  0.16849675  0.30087325  1
  Ba  Ba850  1  0.37500000  0.16849675  0.55087325  1
  Ba  Ba851  1  0.37500000  0.16849675  0.80087325  1
  Ba  Ba852  1  0.37500000  0.41849675  0.05087325  1
  Ba  Ba853  1  0.37500000  0.41849675  0.30087325  1
  Ba  Ba854  1  0.37500000  0.41849675  0.55087325  1
  Ba  Ba855  1  0.37500000  0.41849675  0.80087325  1
  Ba  Ba856  1  0.37500000  0.66849675  0.05087325  1
  Ba  Ba857  1  0.37500000  0.66849675  0.30087325  1
  Ba  Ba858  1  0.37500000  0.66849675  0.55087325  1
  Ba  Ba859  1  0.37500000  0.66849675  0.80087325  1
  Ba  Ba860  1  0.37500000  0.91849675  0.05087325  1
  Ba  Ba861  1  0.37500000  0.91849675  0.30087325  1
  Ba  Ba862  1  0.37500000  0.91849675  0.55087325  1
  Ba  Ba863  1  0.37500000  0.91849675  0.80087325  1
  Ba  Ba864  1  0.62500000  0.16849675  0.05087325  1
  Ba  Ba865  1  0.62500000  0.16849675  0.30087325  1
  Ba  Ba866  1  0.62500000  0.16849675  0.55087325  1
  Ba  Ba867  1  0.62500000  0.16849675  0.80087325  1
  Ba  Ba868  1  0.62500000  0.41849675  0.05087325  1
  Ba  Ba869  1  0.62500000  0.41849675  0.30087325  1
  Ba  Ba870  1  0.62500000  0.41849675  0.55087325  1
  Ba  Ba871  1  0.62500000  0.41849675  0.80087325  1
  Ba  Ba872  1  0.62500000  0.66849675  0.05087325  1
  Ba  Ba873  1  0.62500000  0.66849675  0.30087325  1
  Ba  Ba874  1  0.62500000  0.66849675  0.55087325  1
  Ba  Ba875  1  0.62500000  0.66849675  0.80087325  1
  Ba  Ba876  1  0.62500000  0.91849675  0.05087325  1
  Ba  Ba877  1  0.62500000  0.91849675  0.30087325  1
  Ba  Ba878  1  0.62500000  0.91849675  0.55087325  1
  Ba  Ba879  1  0.62500000  0.91849675  0.80087325  1
  Ba  Ba880  1  0.87500000  0.16849675  0.05087325  1
  Ba  Ba881  1  0.87500000  0.16849675  0.30087325  1
  Ba  Ba882  1  0.87500000  0.16849675  0.55087325  1
  Ba  Ba883  1  0.87500000  0.16849675  0.80087325  1
  Ba  Ba884  1  0.87500000  0.41849675  0.05087325  1
  Ba  Ba885  1  0.87500000  0.41849675  0.30087325  1
  Ba  Ba886  1  0.87500000  0.41849675  0.55087325  1
  Ba  Ba887  1  0.87500000  0.41849675  0.80087325  1
  Ba  Ba888  1  0.87500000  0.66849675  0.05087325  1
  Ba  Ba889  1  0.87500000  0.66849675  0.30087325  1
  Ba  Ba890  1  0.87500000  0.66849675  0.55087325  1
  Ba  Ba891  1  0.87500000  0.66849675  0.80087325  1
  Ba  Ba892  1  0.87500000  0.91849675  0.05087325  1
  Ba  Ba893  1  0.87500000  0.91849675  0.30087325  1
  Ba  Ba894  1  0.87500000  0.91849675  0.55087325  1
  Ba  Ba895  1  0.87500000  0.91849675  0.80087325  1
  Ba  Ba896  1  0.12500000  0.18705550  0.12597375  1
  Ba  Ba897  1  0.12500000  0.18705550  0.37597375  1
  Ba  Ba898  1  0.12500000  0.18705550  0.62597375  1
  Ba  Ba899  1  0.12500000  0.18705550  0.87597375  1
  Ba  Ba900  1  0.12500000  0.43705550  0.12597375  1
  Ba  Ba901  1  0.12500000  0.43705550  0.37597375  1
  Ba  Ba902  1  0.12500000  0.43705550  0.62597375  1
  Ba  Ba903  1  0.12500000  0.43705550  0.87597375  1
  Ba  Ba904  1  0.12500000  0.68705550  0.12597375  1
  Ba  Ba905  1  0.12500000  0.68705550  0.37597375  1
  Ba  Ba906  1  0.12500000  0.68705550  0.62597375  1
  Ba  Ba907  1  0.12500000  0.68705550  0.87597375  1
  Ba  Ba908  1  0.12500000  0.93705550  0.12597375  1
  Ba  Ba909  1  0.12500000  0.93705550  0.37597375  1
  Ba  Ba910  1  0.12500000  0.93705550  0.62597375  1
  Ba  Ba911  1  0.12500000  0.93705550  0.87597375  1
  Ba  Ba912  1  0.37500000  0.18705550  0.12597375  1
  Ba  Ba913  1  0.37500000  0.18705550  0.37597375  1
  Ba  Ba914  1  0.37500000  0.18705550  0.62597375  1
  Ba  Ba915  1  0.37500000  0.18705550  0.87597375  1
  Ba  Ba916  1  0.37500000  0.43705550  0.12597375  1
  Ba  Ba917  1  0.37500000  0.43705550  0.37597375  1
  Ba  Ba918  1  0.37500000  0.43705550  0.62597375  1
  Ba  Ba919  1  0.37500000  0.43705550  0.87597375  1
  Ba  Ba920  1  0.37500000  0.68705550  0.12597375  1
  Ba  Ba921  1  0.37500000  0.68705550  0.37597375  1
  Ba  Ba922  1  0.37500000  0.68705550  0.62597375  1
  Ba  Ba923  1  0.37500000  0.68705550  0.87597375  1
  Ba  Ba924  1  0.37500000  0.93705550  0.12597375  1
  Ba  Ba925  1  0.37500000  0.93705550  0.37597375  1
  Ba  Ba926  1  0.37500000  0.93705550  0.62597375  1
  Ba  Ba927  1  0.37500000  0.93705550  0.87597375  1
  Ba  Ba928  1  0.62500000  0.18705550  0.12597375  1
  Ba  Ba929  1  0.62500000  0.18705550  0.37597375  1
  Ba  Ba930  1  0.62500000  0.18705550  0.62597375  1
  Ba  Ba931  1  0.62500000  0.18705550  0.87597375  1
  Ba  Ba932  1  0.62500000  0.43705550  0.12597375  1
  Ba  Ba933  1  0.62500000  0.43705550  0.37597375  1
  Ba  Ba934  1  0.62500000  0.43705550  0.62597375  1
  Ba  Ba935  1  0.62500000  0.43705550  0.87597375  1
  Ba  Ba936  1  0.62500000  0.68705550  0.12597375  1
  Ba  Ba937  1  0.62500000  0.68705550  0.37597375  1
  Ba  Ba938  1  0.62500000  0.68705550  0.62597375  1
  Ba  Ba939  1  0.62500000  0.68705550  0.87597375  1
  Ba  Ba940  1  0.62500000  0.93705550  0.12597375  1
  Ba  Ba941  1  0.62500000  0.93705550  0.37597375  1
  Ba  Ba942  1  0.62500000  0.93705550  0.62597375  1
  Ba  Ba943  1  0.62500000  0.93705550  0.87597375  1
  Ba  Ba944  1  0.87500000  0.18705550  0.12597375  1
  Ba  Ba945  1  0.87500000  0.18705550  0.37597375  1
  Ba  Ba946  1  0.87500000  0.18705550  0.62597375  1
  Ba  Ba947  1  0.87500000  0.18705550  0.87597375  1
  Ba  Ba948  1  0.87500000  0.43705550  0.12597375  1
  Ba  Ba949  1  0.87500000  0.43705550  0.37597375  1
  Ba  Ba950  1  0.87500000  0.43705550  0.62597375  1
  Ba  Ba951  1  0.87500000  0.43705550  0.87597375  1
  Ba  Ba952  1  0.87500000  0.68705550  0.12597375  1
  Ba  Ba953  1  0.87500000  0.68705550  0.37597375  1
  Ba  Ba954  1  0.87500000  0.68705550  0.62597375  1
  Ba  Ba955  1  0.87500000  0.68705550  0.87597375  1
  Ba  Ba956  1  0.87500000  0.93705550  0.12597375  1
  Ba  Ba957  1  0.87500000  0.93705550  0.37597375  1
  Ba  Ba958  1  0.87500000  0.93705550  0.62597375  1
  Ba  Ba959  1  0.87500000  0.93705550  0.87597375  1
  Ba  Ba960  1  0.00000000  0.18722675  0.00074625  1
  Ba  Ba961  1  0.00000000  0.18722675  0.25074625  1
  Ba  Ba962  1  0.00000000  0.18722675  0.50074625  1
  Ba  Ba963  1  0.00000000  0.18722675  0.75074625  1
  Ba  Ba964  1  0.00000000  0.43722675  0.00074625  1
  Ba  Ba965  1  0.00000000  0.43722675  0.25074625  1
  Ba  Ba966  1  0.00000000  0.43722675  0.50074625  1
  Ba  Ba967  1  0.00000000  0.43722675  0.75074625  1
  Ba  Ba968  1  0.00000000  0.68722675  0.00074625  1
  Ba  Ba969  1  0.00000000  0.68722675  0.25074625  1
  Ba  Ba970  1  0.00000000  0.68722675  0.50074625  1
  Ba  Ba971  1  0.00000000  0.68722675  0.75074625  1
  Ba  Ba972  1  0.00000000  0.93722675  0.00074625  1
  Ba  Ba973  1  0.00000000  0.93722675  0.25074625  1
  Ba  Ba974  1  0.00000000  0.93722675  0.50074625  1
  Ba  Ba975  1  0.00000000  0.93722675  0.75074625  1
  Ba  Ba976  1  0.25000000  0.18722675  0.00074625  1
  Ba  Ba977  1  0.25000000  0.18722675  0.25074625  1
  Ba  Ba978  1  0.25000000  0.18722675  0.50074625  1
  Ba  Ba979  1  0.25000000  0.18722675  0.75074625  1
  Ba  Ba980  1  0.25000000  0.43722675  0.00074625  1
  Ba  Ba981  1  0.25000000  0.43722675  0.25074625  1
  Ba  Ba982  1  0.25000000  0.43722675  0.50074625  1
  Ba  Ba983  1  0.25000000  0.43722675  0.75074625  1
  Ba  Ba984  1  0.25000000  0.68722675  0.00074625  1
  Ba  Ba985  1  0.25000000  0.68722675  0.25074625  1
  Ba  Ba986  1  0.25000000  0.68722675  0.50074625  1
  Ba  Ba987  1  0.25000000  0.68722675  0.75074625  1
  Ba  Ba988  1  0.25000000  0.93722675  0.00074625  1
  Ba  Ba989  1  0.25000000  0.93722675  0.25074625  1
  Ba  Ba990  1  0.25000000  0.93722675  0.50074625  1
  Ba  Ba991  1  0.25000000  0.93722675  0.75074625  1
  Ba  Ba992  1  0.50000000  0.18722675  0.00074625  1
  Ba  Ba993  1  0.50000000  0.18722675  0.25074625  1
  Ba  Ba994  1  0.50000000  0.18722675  0.50074625  1
  Ba  Ba995  1  0.50000000  0.18722675  0.75074625  1
  Ba  Ba996  1  0.50000000  0.43722675  0.00074625  1
  Ba  Ba997  1  0.50000000  0.43722675  0.25074625  1
  Ba  Ba998  1  0.50000000  0.43722675  0.50074625  1
  Ba  Ba999  1  0.50000000  0.43722675  0.75074625  1
  Ba  Ba1000  1  0.50000000  0.68722675  0.00074625  1
  Ba  Ba1001  1  0.50000000  0.68722675  0.25074625  1
  Ba  Ba1002  1  0.50000000  0.68722675  0.50074625  1
  Ba  Ba1003  1  0.50000000  0.68722675  0.75074625  1
  Ba  Ba1004  1  0.50000000  0.93722675  0.00074625  1
  Ba  Ba1005  1  0.50000000  0.93722675  0.25074625  1
  Ba  Ba1006  1  0.50000000  0.93722675  0.50074625  1
  Ba  Ba1007  1  0.50000000  0.93722675  0.75074625  1
  Ba  Ba1008  1  0.75000000  0.18722675  0.00074625  1
  Ba  Ba1009  1  0.75000000  0.18722675  0.25074625  1
  Ba  Ba1010  1  0.75000000  0.18722675  0.50074625  1
  Ba  Ba1011  1  0.75000000  0.18722675  0.75074625  1
  Ba  Ba1012  1  0.75000000  0.43722675  0.00074625  1
  Ba  Ba1013  1  0.75000000  0.43722675  0.25074625  1
  Ba  Ba1014  1  0.75000000  0.43722675  0.50074625  1
  Ba  Ba1015  1  0.75000000  0.43722675  0.75074625  1
  Ba  Ba1016  1  0.75000000  0.68722675  0.00074625  1
  Ba  Ba1017  1  0.75000000  0.68722675  0.25074625  1
  Ba  Ba1018  1  0.75000000  0.68722675  0.50074625  1
  Ba  Ba1019  1  0.75000000  0.68722675  0.75074625  1
  Ba  Ba1020  1  0.75000000  0.93722675  0.00074625  1
  Ba  Ba1021  1  0.75000000  0.93722675  0.25074625  1
  Ba  Ba1022  1  0.75000000  0.93722675  0.50074625  1
  Ba  Ba1023  1  0.75000000  0.93722675  0.75074625  1
  Ba  Ba1024  1  0.00000000  0.20589150  0.17539875  1
  Ba  Ba1025  1  0.00000000  0.20589150  0.42539875  1
  Ba  Ba1026  1  0.00000000  0.20589150  0.67539875  1
  Ba  Ba1027  1  0.00000000  0.20589150  0.92539875  1
  Ba  Ba1028  1  0.00000000  0.45589150  0.17539875  1
  Ba  Ba1029  1  0.00000000  0.45589150  0.42539875  1
  Ba  Ba1030  1  0.00000000  0.45589150  0.67539875  1
  Ba  Ba1031  1  0.00000000  0.45589150  0.92539875  1
  Ba  Ba1032  1  0.00000000  0.70589150  0.17539875  1
  Ba  Ba1033  1  0.00000000  0.70589150  0.42539875  1
  Ba  Ba1034  1  0.00000000  0.70589150  0.67539875  1
  Ba  Ba1035  1  0.00000000  0.70589150  0.92539875  1
  Ba  Ba1036  1  0.00000000  0.95589150  0.17539875  1
  Ba  Ba1037  1  0.00000000  0.95589150  0.42539875  1
  Ba  Ba1038  1  0.00000000  0.95589150  0.67539875  1
  Ba  Ba1039  1  0.00000000  0.95589150  0.92539875  1
  Ba  Ba1040  1  0.25000000  0.20589150  0.17539875  1
  Ba  Ba1041  1  0.25000000  0.20589150  0.42539875  1
  Ba  Ba1042  1  0.25000000  0.20589150  0.67539875  1
  Ba  Ba1043  1  0.25000000  0.20589150  0.92539875  1
  Ba  Ba1044  1  0.25000000  0.45589150  0.17539875  1
  Ba  Ba1045  1  0.25000000  0.45589150  0.42539875  1
  Ba  Ba1046  1  0.25000000  0.45589150  0.67539875  1
  Ba  Ba1047  1  0.25000000  0.45589150  0.92539875  1
  Ba  Ba1048  1  0.25000000  0.70589150  0.17539875  1
  Ba  Ba1049  1  0.25000000  0.70589150  0.42539875  1
  Ba  Ba1050  1  0.25000000  0.70589150  0.67539875  1
  Ba  Ba1051  1  0.25000000  0.70589150  0.92539875  1
  Ba  Ba1052  1  0.25000000  0.95589150  0.17539875  1
  Ba  Ba1053  1  0.25000000  0.95589150  0.42539875  1
  Ba  Ba1054  1  0.25000000  0.95589150  0.67539875  1
  Ba  Ba1055  1  0.25000000  0.95589150  0.92539875  1
  Ba  Ba1056  1  0.50000000  0.20589150  0.17539875  1
  Ba  Ba1057  1  0.50000000  0.20589150  0.42539875  1
  Ba  Ba1058  1  0.50000000  0.20589150  0.67539875  1
  Ba  Ba1059  1  0.50000000  0.20589150  0.92539875  1
  Ba  Ba1060  1  0.50000000  0.45589150  0.17539875  1
  Ba  Ba1061  1  0.50000000  0.45589150  0.42539875  1
  Ba  Ba1062  1  0.50000000  0.45589150  0.67539875  1
  Ba  Ba1063  1  0.50000000  0.45589150  0.92539875  1
  Ba  Ba1064  1  0.50000000  0.70589150  0.17539875  1
  Ba  Ba1065  1  0.50000000  0.70589150  0.42539875  1
  Ba  Ba1066  1  0.50000000  0.70589150  0.67539875  1
  Ba  Ba1067  1  0.50000000  0.70589150  0.92539875  1
  Ba  Ba1068  1  0.50000000  0.95589150  0.17539875  1
  Ba  Ba1069  1  0.50000000  0.95589150  0.42539875  1
  Ba  Ba1070  1  0.50000000  0.95589150  0.67539875  1
  Ba  Ba1071  1  0.50000000  0.95589150  0.92539875  1
  Ba  Ba1072  1  0.75000000  0.20589150  0.17539875  1
  Ba  Ba1073  1  0.75000000  0.20589150  0.42539875  1
  Ba  Ba1074  1  0.75000000  0.20589150  0.67539875  1
  Ba  Ba1075  1  0.75000000  0.20589150  0.92539875  1
  Ba  Ba1076  1  0.75000000  0.45589150  0.17539875  1
  Ba  Ba1077  1  0.75000000  0.45589150  0.42539875  1
  Ba  Ba1078  1  0.75000000  0.45589150  0.67539875  1
  Ba  Ba1079  1  0.75000000  0.45589150  0.92539875  1
  Ba  Ba1080  1  0.75000000  0.70589150  0.17539875  1
  Ba  Ba1081  1  0.75000000  0.70589150  0.42539875  1
  Ba  Ba1082  1  0.75000000  0.70589150  0.67539875  1
  Ba  Ba1083  1  0.75000000  0.70589150  0.92539875  1
  Ba  Ba1084  1  0.75000000  0.95589150  0.17539875  1
  Ba  Ba1085  1  0.75000000  0.95589150  0.42539875  1
  Ba  Ba1086  1  0.75000000  0.95589150  0.67539875  1
  Ba  Ba1087  1  0.75000000  0.95589150  0.92539875  1
  Ba  Ba1088  1  0.00000000  0.21075000  0.07274400  1
  Ba  Ba1089  1  0.00000000  0.21075000  0.32274400  1
  Ba  Ba1090  1  0.00000000  0.21075000  0.57274400  1
  Ba  Ba1091  1  0.00000000  0.21075000  0.82274400  1
  Ba  Ba1092  1  0.00000000  0.46075000  0.07274400  1
  Ba  Ba1093  1  0.00000000  0.46075000  0.32274400  1
  Ba  Ba1094  1  0.00000000  0.46075000  0.57274400  1
  Ba  Ba1095  1  0.00000000  0.46075000  0.82274400  1
  Ba  Ba1096  1  0.00000000  0.71075000  0.07274400  1
  Ba  Ba1097  1  0.00000000  0.71075000  0.32274400  1
  Ba  Ba1098  1  0.00000000  0.71075000  0.57274400  1
  Ba  Ba1099  1  0.00000000  0.71075000  0.82274400  1
  Ba  Ba1100  1  0.00000000  0.96075000  0.07274400  1
  Ba  Ba1101  1  0.00000000  0.96075000  0.32274400  1
  Ba  Ba1102  1  0.00000000  0.96075000  0.57274400  1
  Ba  Ba1103  1  0.00000000  0.96075000  0.82274400  1
  Ba  Ba1104  1  0.25000000  0.21075000  0.07274400  1
  Ba  Ba1105  1  0.25000000  0.21075000  0.32274400  1
  Ba  Ba1106  1  0.25000000  0.21075000  0.57274400  1
  Ba  Ba1107  1  0.25000000  0.21075000  0.82274400  1
  Ba  Ba1108  1  0.25000000  0.46075000  0.07274400  1
  Ba  Ba1109  1  0.25000000  0.46075000  0.32274400  1
  Ba  Ba1110  1  0.25000000  0.46075000  0.57274400  1
  Ba  Ba1111  1  0.25000000  0.46075000  0.82274400  1
  Ba  Ba1112  1  0.25000000  0.71075000  0.07274400  1
  Ba  Ba1113  1  0.25000000  0.71075000  0.32274400  1
  Ba  Ba1114  1  0.25000000  0.71075000  0.57274400  1
  Ba  Ba1115  1  0.25000000  0.71075000  0.82274400  1
  Ba  Ba1116  1  0.25000000  0.96075000  0.07274400  1
  Ba  Ba1117  1  0.25000000  0.96075000  0.32274400  1
  Ba  Ba1118  1  0.25000000  0.96075000  0.57274400  1
  Ba  Ba1119  1  0.25000000  0.96075000  0.82274400  1
  Ba  Ba1120  1  0.50000000  0.21075000  0.07274400  1
  Ba  Ba1121  1  0.50000000  0.21075000  0.32274400  1
  Ba  Ba1122  1  0.50000000  0.21075000  0.57274400  1
  Ba  Ba1123  1  0.50000000  0.21075000  0.82274400  1
  Ba  Ba1124  1  0.50000000  0.46075000  0.07274400  1
  Ba  Ba1125  1  0.50000000  0.46075000  0.32274400  1
  Ba  Ba1126  1  0.50000000  0.46075000  0.57274400  1
  Ba  Ba1127  1  0.50000000  0.46075000  0.82274400  1
  Ba  Ba1128  1  0.50000000  0.71075000  0.07274400  1
  Ba  Ba1129  1  0.50000000  0.71075000  0.32274400  1
  Ba  Ba1130  1  0.50000000  0.71075000  0.57274400  1
  Ba  Ba1131  1  0.50000000  0.71075000  0.82274400  1
  Ba  Ba1132  1  0.50000000  0.96075000  0.07274400  1
  Ba  Ba1133  1  0.50000000  0.96075000  0.32274400  1
  Ba  Ba1134  1  0.50000000  0.96075000  0.57274400  1
  Ba  Ba1135  1  0.50000000  0.96075000  0.82274400  1
  Ba  Ba1136  1  0.75000000  0.21075000  0.07274400  1
  Ba  Ba1137  1  0.75000000  0.21075000  0.32274400  1
  Ba  Ba1138  1  0.75000000  0.21075000  0.57274400  1
  Ba  Ba1139  1  0.75000000  0.21075000  0.82274400  1
  Ba  Ba1140  1  0.75000000  0.46075000  0.07274400  1
  Ba  Ba1141  1  0.75000000  0.46075000  0.32274400  1
  Ba  Ba1142  1  0.75000000  0.46075000  0.57274400  1
  Ba  Ba1143  1  0.75000000  0.46075000  0.82274400  1
  Ba  Ba1144  1  0.75000000  0.71075000  0.07274400  1
  Ba  Ba1145  1  0.75000000  0.71075000  0.32274400  1
  Ba  Ba1146  1  0.75000000  0.71075000  0.57274400  1
  Ba  Ba1147  1  0.75000000  0.71075000  0.82274400  1
  Ba  Ba1148  1  0.75000000  0.96075000  0.07274400  1
  Ba  Ba1149  1  0.75000000  0.96075000  0.32274400  1
  Ba  Ba1150  1  0.75000000  0.96075000  0.57274400  1
  Ba  Ba1151  1  0.75000000  0.96075000  0.82274400  1
  Ba  Ba1152  1  0.12500000  0.22672775  0.22928975  1
  Ba  Ba1153  1  0.12500000  0.22672775  0.47928975  1
  Ba  Ba1154  1  0.12500000  0.22672775  0.72928975  1
  Ba  Ba1155  1  0.12500000  0.22672775  0.97928975  1
  Ba  Ba1156  1  0.12500000  0.47672775  0.22928975  1
  Ba  Ba1157  1  0.12500000  0.47672775  0.47928975  1
  Ba  Ba1158  1  0.12500000  0.47672775  0.72928975  1
  Ba  Ba1159  1  0.12500000  0.47672775  0.97928975  1
  Ba  Ba1160  1  0.12500000  0.72672775  0.22928975  1
  Ba  Ba1161  1  0.12500000  0.72672775  0.47928975  1
  Ba  Ba1162  1  0.12500000  0.72672775  0.72928975  1
  Ba  Ba1163  1  0.12500000  0.72672775  0.97928975  1
  Ba  Ba1164  1  0.12500000  0.97672775  0.22928975  1
  Ba  Ba1165  1  0.12500000  0.97672775  0.47928975  1
  Ba  Ba1166  1  0.12500000  0.97672775  0.72928975  1
  Ba  Ba1167  1  0.12500000  0.97672775  0.97928975  1
  Ba  Ba1168  1  0.37500000  0.22672775  0.22928975  1
  Ba  Ba1169  1  0.37500000  0.22672775  0.47928975  1
  Ba  Ba1170  1  0.37500000  0.22672775  0.72928975  1
  Ba  Ba1171  1  0.37500000  0.22672775  0.97928975  1
  Ba  Ba1172  1  0.37500000  0.47672775  0.22928975  1
  Ba  Ba1173  1  0.37500000  0.47672775  0.47928975  1
  Ba  Ba1174  1  0.37500000  0.47672775  0.72928975  1
  Ba  Ba1175  1  0.37500000  0.47672775  0.97928975  1
  Ba  Ba1176  1  0.37500000  0.72672775  0.22928975  1
  Ba  Ba1177  1  0.37500000  0.72672775  0.47928975  1
  Ba  Ba1178  1  0.37500000  0.72672775  0.72928975  1
  Ba  Ba1179  1  0.37500000  0.72672775  0.97928975  1
  Ba  Ba1180  1  0.37500000  0.97672775  0.22928975  1
  Ba  Ba1181  1  0.37500000  0.97672775  0.47928975  1
  Ba  Ba1182  1  0.37500000  0.97672775  0.72928975  1
  Ba  Ba1183  1  0.37500000  0.97672775  0.97928975  1
  Ba  Ba1184  1  0.62500000  0.22672775  0.22928975  1
  Ba  Ba1185  1  0.62500000  0.22672775  0.47928975  1
  Ba  Ba1186  1  0.62500000  0.22672775  0.72928975  1
  Ba  Ba1187  1  0.62500000  0.22672775  0.97928975  1
  Ba  Ba1188  1  0.62500000  0.47672775  0.22928975  1
  Ba  Ba1189  1  0.62500000  0.47672775  0.47928975  1
  Ba  Ba1190  1  0.62500000  0.47672775  0.72928975  1
  Ba  Ba1191  1  0.62500000  0.47672775  0.97928975  1
  Ba  Ba1192  1  0.62500000  0.72672775  0.22928975  1
  Ba  Ba1193  1  0.62500000  0.72672775  0.47928975  1
  Ba  Ba1194  1  0.62500000  0.72672775  0.72928975  1
  Ba  Ba1195  1  0.62500000  0.72672775  0.97928975  1
  Ba  Ba1196  1  0.62500000  0.97672775  0.22928975  1
  Ba  Ba1197  1  0.62500000  0.97672775  0.47928975  1
  Ba  Ba1198  1  0.62500000  0.97672775  0.72928975  1
  Ba  Ba1199  1  0.62500000  0.97672775  0.97928975  1
  Ba  Ba1200  1  0.87500000  0.22672775  0.22928975  1
  Ba  Ba1201  1  0.87500000  0.22672775  0.47928975  1
  Ba  Ba1202  1  0.87500000  0.22672775  0.72928975  1
  Ba  Ba1203  1  0.87500000  0.22672775  0.97928975  1
  Ba  Ba1204  1  0.87500000  0.47672775  0.22928975  1
  Ba  Ba1205  1  0.87500000  0.47672775  0.47928975  1
  Ba  Ba1206  1  0.87500000  0.47672775  0.72928975  1
  Ba  Ba1207  1  0.87500000  0.47672775  0.97928975  1
  Ba  Ba1208  1  0.87500000  0.72672775  0.22928975  1
  Ba  Ba1209  1  0.87500000  0.72672775  0.47928975  1
  Ba  Ba1210  1  0.87500000  0.72672775  0.72928975  1
  Ba  Ba1211  1  0.87500000  0.72672775  0.97928975  1
  Ba  Ba1212  1  0.87500000  0.97672775  0.22928975  1
  Ba  Ba1213  1  0.87500000  0.97672775  0.47928975  1
  Ba  Ba1214  1  0.87500000  0.97672775  0.72928975  1
  Ba  Ba1215  1  0.87500000  0.97672775  0.97928975  1
  Ba  Ba1216  1  0.12500000  0.24874375  0.10336275  1
  Ba  Ba1217  1  0.12500000  0.24874375  0.35336275  1
  Ba  Ba1218  1  0.12500000  0.24874375  0.60336275  1
  Ba  Ba1219  1  0.12500000  0.24874375  0.85336275  1
  Ba  Ba1220  1  0.12500000  0.49874375  0.10336275  1
  Ba  Ba1221  1  0.12500000  0.49874375  0.35336275  1
  Ba  Ba1222  1  0.12500000  0.49874375  0.60336275  1
  Ba  Ba1223  1  0.12500000  0.49874375  0.85336275  1
  Ba  Ba1224  1  0.12500000  0.74874375  0.10336275  1
  Ba  Ba1225  1  0.12500000  0.74874375  0.35336275  1
  Ba  Ba1226  1  0.12500000  0.74874375  0.60336275  1
  Ba  Ba1227  1  0.12500000  0.74874375  0.85336275  1
  Ba  Ba1228  1  0.12500000  0.99874375  0.10336275  1
  Ba  Ba1229  1  0.12500000  0.99874375  0.35336275  1
  Ba  Ba1230  1  0.12500000  0.99874375  0.60336275  1
  Ba  Ba1231  1  0.12500000  0.99874375  0.85336275  1
  Ba  Ba1232  1  0.37500000  0.24874375  0.10336275  1
  Ba  Ba1233  1  0.37500000  0.24874375  0.35336275  1
  Ba  Ba1234  1  0.37500000  0.24874375  0.60336275  1
  Ba  Ba1235  1  0.37500000  0.24874375  0.85336275  1
  Ba  Ba1236  1  0.37500000  0.49874375  0.10336275  1
  Ba  Ba1237  1  0.37500000  0.49874375  0.35336275  1
  Ba  Ba1238  1  0.37500000  0.49874375  0.60336275  1
  Ba  Ba1239  1  0.37500000  0.49874375  0.85336275  1
  Ba  Ba1240  1  0.37500000  0.74874375  0.10336275  1
  Ba  Ba1241  1  0.37500000  0.74874375  0.35336275  1
  Ba  Ba1242  1  0.37500000  0.74874375  0.60336275  1
  Ba  Ba1243  1  0.37500000  0.74874375  0.85336275  1
  Ba  Ba1244  1  0.37500000  0.99874375  0.10336275  1
  Ba  Ba1245  1  0.37500000  0.99874375  0.35336275  1
  Ba  Ba1246  1  0.37500000  0.99874375  0.60336275  1
  Ba  Ba1247  1  0.37500000  0.99874375  0.85336275  1
  Ba  Ba1248  1  0.62500000  0.24874375  0.10336275  1
  Ba  Ba1249  1  0.62500000  0.24874375  0.35336275  1
  Ba  Ba1250  1  0.62500000  0.24874375  0.60336275  1
  Ba  Ba1251  1  0.62500000  0.24874375  0.85336275  1
  Ba  Ba1252  1  0.62500000  0.49874375  0.10336275  1
  Ba  Ba1253  1  0.62500000  0.49874375  0.35336275  1
  Ba  Ba1254  1  0.62500000  0.49874375  0.60336275  1
  Ba  Ba1255  1  0.62500000  0.49874375  0.85336275  1
  Ba  Ba1256  1  0.62500000  0.74874375  0.10336275  1
  Ba  Ba1257  1  0.62500000  0.74874375  0.35336275  1
  Ba  Ba1258  1  0.62500000  0.74874375  0.60336275  1
  Ba  Ba1259  1  0.62500000  0.74874375  0.85336275  1
  Ba  Ba1260  1  0.62500000  0.99874375  0.10336275  1
  Ba  Ba1261  1  0.62500000  0.99874375  0.35336275  1
  Ba  Ba1262  1  0.62500000  0.99874375  0.60336275  1
  Ba  Ba1263  1  0.62500000  0.99874375  0.85336275  1
  Ba  Ba1264  1  0.87500000  0.24874375  0.10336275  1
  Ba  Ba1265  1  0.87500000  0.24874375  0.35336275  1
  Ba  Ba1266  1  0.87500000  0.24874375  0.60336275  1
  Ba  Ba1267  1  0.87500000  0.24874375  0.85336275  1
  Ba  Ba1268  1  0.87500000  0.49874375  0.10336275  1
  Ba  Ba1269  1  0.87500000  0.49874375  0.35336275  1
  Ba  Ba1270  1  0.87500000  0.49874375  0.60336275  1
  Ba  Ba1271  1  0.87500000  0.49874375  0.85336275  1
  Ba  Ba1272  1  0.87500000  0.74874375  0.10336275  1
  Ba  Ba1273  1  0.87500000  0.74874375  0.35336275  1
  Ba  Ba1274  1  0.87500000  0.74874375  0.60336275  1
  Ba  Ba1275  1  0.87500000  0.74874375  0.85336275  1
  Ba  Ba1276  1  0.87500000  0.99874375  0.10336275  1
  Ba  Ba1277  1  0.87500000  0.99874375  0.35336275  1
  Ba  Ba1278  1  0.87500000  0.99874375  0.60336275  1
  Ba  Ba1279  1  0.87500000  0.99874375  0.85336275  1
  Li  Li1280  1  0.12500000  0.03033725  0.00146050  1
  Li  Li1281  1  0.12500000  0.03033725  0.25146050  1
  Li  Li1282  1  0.12500000  0.03033725  0.50146050  1
  Li  Li1283  1  0.12500000  0.03033725  0.75146050  1
  Li  Li1284  1  0.12500000  0.28033725  0.00146050  1
  Li  Li1285  1  0.12500000  0.28033725  0.25146050  1
  Li  Li1286  1  0.12500000  0.28033725  0.50146050  1
  Li  Li1287  1  0.12500000  0.28033725  0.75146050  1
  Li  Li1288  1  0.12500000  0.53033725  0.00146050  1
  Li  Li1289  1  0.12500000  0.53033725  0.25146050  1
  Li  Li1290  1  0.12500000  0.53033725  0.50146050  1
  Li  Li1291  1  0.12500000  0.53033725  0.75146050  1
  Li  Li1292  1  0.12500000  0.78033725  0.00146050  1
  Li  Li1293  1  0.12500000  0.78033725  0.25146050  1
  Li  Li1294  1  0.12500000  0.78033725  0.50146050  1
  Li  Li1295  1  0.12500000  0.78033725  0.75146050  1
  Li  Li1296  1  0.37500000  0.03033725  0.00146050  1
  Li  Li1297  1  0.37500000  0.03033725  0.25146050  1
  Li  Li1298  1  0.37500000  0.03033725  0.50146050  1
  Li  Li1299  1  0.37500000  0.03033725  0.75146050  1
  Li  Li1300  1  0.37500000  0.28033725  0.00146050  1
  Li  Li1301  1  0.37500000  0.28033725  0.25146050  1
  Li  Li1302  1  0.37500000  0.28033725  0.50146050  1
  Li  Li1303  1  0.37500000  0.28033725  0.75146050  1
  Li  Li1304  1  0.37500000  0.53033725  0.00146050  1
  Li  Li1305  1  0.37500000  0.53033725  0.25146050  1
  Li  Li1306  1  0.37500000  0.53033725  0.50146050  1
  Li  Li1307  1  0.37500000  0.53033725  0.75146050  1
  Li  Li1308  1  0.37500000  0.78033725  0.00146050  1
  Li  Li1309  1  0.37500000  0.78033725  0.25146050  1
  Li  Li1310  1  0.37500000  0.78033725  0.50146050  1
  Li  Li1311  1  0.37500000  0.78033725  0.75146050  1
  Li  Li1312  1  0.62500000  0.03033725  0.00146050  1
  Li  Li1313  1  0.62500000  0.03033725  0.25146050  1
  Li  Li1314  1  0.62500000  0.03033725  0.50146050  1
  Li  Li1315  1  0.62500000  0.03033725  0.75146050  1
  Li  Li1316  1  0.62500000  0.28033725  0.00146050  1
  Li  Li1317  1  0.62500000  0.28033725  0.25146050  1
  Li  Li1318  1  0.62500000  0.28033725  0.50146050  1
  Li  Li1319  1  0.62500000  0.28033725  0.75146050  1
  Li  Li1320  1  0.62500000  0.53033725  0.00146050  1
  Li  Li1321  1  0.62500000  0.53033725  0.25146050  1
  Li  Li1322  1  0.62500000  0.53033725  0.50146050  1
  Li  Li1323  1  0.62500000  0.53033725  0.75146050  1
  Li  Li1324  1  0.62500000  0.78033725  0.00146050  1
  Li  Li1325  1  0.62500000  0.78033725  0.25146050  1
  Li  Li1326  1  0.62500000  0.78033725  0.50146050  1
  Li  Li1327  1  0.62500000  0.78033725  0.75146050  1
  Li  Li1328  1  0.87500000  0.03033725  0.00146050  1
  Li  Li1329  1  0.87500000  0.03033725  0.25146050  1
  Li  Li1330  1  0.87500000  0.03033725  0.50146050  1
  Li  Li1331  1  0.87500000  0.03033725  0.75146050  1
  Li  Li1332  1  0.87500000  0.28033725  0.00146050  1
  Li  Li1333  1  0.87500000  0.28033725  0.25146050  1
  Li  Li1334  1  0.87500000  0.28033725  0.50146050  1
  Li  Li1335  1  0.87500000  0.28033725  0.75146050  1
  Li  Li1336  1  0.87500000  0.53033725  0.00146050  1
  Li  Li1337  1  0.87500000  0.53033725  0.25146050  1
  Li  Li1338  1  0.87500000  0.53033725  0.50146050  1
  Li  Li1339  1  0.87500000  0.53033725  0.75146050  1
  Li  Li1340  1  0.87500000  0.78033725  0.00146050  1
  Li  Li1341  1  0.87500000  0.78033725  0.25146050  1
  Li  Li1342  1  0.87500000  0.78033725  0.50146050  1
  Li  Li1343  1  0.87500000  0.78033725  0.75146050  1
  Li  Li1344  1  0.00000000  0.09294075  0.12636800  1
  Li  Li1345  1  0.00000000  0.09294075  0.37636800  1
  Li  Li1346  1  0.00000000  0.09294075  0.62636800  1
  Li  Li1347  1  0.00000000  0.09294075  0.87636800  1
  Li  Li1348  1  0.00000000  0.34294075  0.12636800  1
  Li  Li1349  1  0.00000000  0.34294075  0.37636800  1
  Li  Li1350  1  0.00000000  0.34294075  0.62636800  1
  Li  Li1351  1  0.00000000  0.34294075  0.87636800  1
  Li  Li1352  1  0.00000000  0.59294075  0.12636800  1
  Li  Li1353  1  0.00000000  0.59294075  0.37636800  1
  Li  Li1354  1  0.00000000  0.59294075  0.62636800  1
  Li  Li1355  1  0.00000000  0.59294075  0.87636800  1
  Li  Li1356  1  0.00000000  0.84294075  0.12636800  1
  Li  Li1357  1  0.00000000  0.84294075  0.37636800  1
  Li  Li1358  1  0.00000000  0.84294075  0.62636800  1
  Li  Li1359  1  0.00000000  0.84294075  0.87636800  1
  Li  Li1360  1  0.25000000  0.09294075  0.12636800  1
  Li  Li1361  1  0.25000000  0.09294075  0.37636800  1
  Li  Li1362  1  0.25000000  0.09294075  0.62636800  1
  Li  Li1363  1  0.25000000  0.09294075  0.87636800  1
  Li  Li1364  1  0.25000000  0.34294075  0.12636800  1
  Li  Li1365  1  0.25000000  0.34294075  0.37636800  1
  Li  Li1366  1  0.25000000  0.34294075  0.62636800  1
  Li  Li1367  1  0.25000000  0.34294075  0.87636800  1
  Li  Li1368  1  0.25000000  0.59294075  0.12636800  1
  Li  Li1369  1  0.25000000  0.59294075  0.37636800  1
  Li  Li1370  1  0.25000000  0.59294075  0.62636800  1
  Li  Li1371  1  0.25000000  0.59294075  0.87636800  1
  Li  Li1372  1  0.25000000  0.84294075  0.12636800  1
  Li  Li1373  1  0.25000000  0.84294075  0.37636800  1
  Li  Li1374  1  0.25000000  0.84294075  0.62636800  1
  Li  Li1375  1  0.25000000  0.84294075  0.87636800  1
  Li  Li1376  1  0.50000000  0.09294075  0.12636800  1
  Li  Li1377  1  0.50000000  0.09294075  0.37636800  1
  Li  Li1378  1  0.50000000  0.09294075  0.62636800  1
  Li  Li1379  1  0.50000000  0.09294075  0.87636800  1
  Li  Li1380  1  0.50000000  0.34294075  0.12636800  1
  Li  Li1381  1  0.50000000  0.34294075  0.37636800  1
  Li  Li1382  1  0.50000000  0.34294075  0.62636800  1
  Li  Li1383  1  0.50000000  0.34294075  0.87636800  1
  Li  Li1384  1  0.50000000  0.59294075  0.12636800  1
  Li  Li1385  1  0.50000000  0.59294075  0.37636800  1
  Li  Li1386  1  0.50000000  0.59294075  0.62636800  1
  Li  Li1387  1  0.50000000  0.59294075  0.87636800  1
  Li  Li1388  1  0.50000000  0.84294075  0.12636800  1
  Li  Li1389  1  0.50000000  0.84294075  0.37636800  1
  Li  Li1390  1  0.50000000  0.84294075  0.62636800  1
  Li  Li1391  1  0.50000000  0.84294075  0.87636800  1
  Li  Li1392  1  0.75000000  0.09294075  0.12636800  1
  Li  Li1393  1  0.75000000  0.09294075  0.37636800  1
  Li  Li1394  1  0.75000000  0.09294075  0.62636800  1
  Li  Li1395  1  0.75000000  0.09294075  0.87636800  1
  Li  Li1396  1  0.75000000  0.34294075  0.12636800  1
  Li  Li1397  1  0.75000000  0.34294075  0.37636800  1
  Li  Li1398  1  0.75000000  0.34294075  0.62636800  1
  Li  Li1399  1  0.75000000  0.34294075  0.87636800  1
  Li  Li1400  1  0.75000000  0.59294075  0.12636800  1
  Li  Li1401  1  0.75000000  0.59294075  0.37636800  1
  Li  Li1402  1  0.75000000  0.59294075  0.62636800  1
  Li  Li1403  1  0.75000000  0.59294075  0.87636800  1
  Li  Li1404  1  0.75000000  0.84294075  0.12636800  1
  Li  Li1405  1  0.75000000  0.84294075  0.37636800  1
  Li  Li1406  1  0.75000000  0.84294075  0.62636800  1
  Li  Li1407  1  0.75000000  0.84294075  0.87636800  1
  Li  Li1408  1  0.12500000  0.15533725  0.24853950  1
  Li  Li1409  1  0.12500000  0.15533725  0.49853950  1
  Li  Li1410  1  0.12500000  0.15533725  0.74853950  1
  Li  Li1411  1  0.12500000  0.15533725  0.99853950  1
  Li  Li1412  1  0.12500000  0.40533725  0.24853950  1
  Li  Li1413  1  0.12500000  0.40533725  0.49853950  1
  Li  Li1414  1  0.12500000  0.40533725  0.74853950  1
  Li  Li1415  1  0.12500000  0.40533725  0.99853950  1
  Li  Li1416  1  0.12500000  0.65533725  0.24853950  1
  Li  Li1417  1  0.12500000  0.65533725  0.49853950  1
  Li  Li1418  1  0.12500000  0.65533725  0.74853950  1
  Li  Li1419  1  0.12500000  0.65533725  0.99853950  1
  Li  Li1420  1  0.12500000  0.90533725  0.24853950  1
  Li  Li1421  1  0.12500000  0.90533725  0.49853950  1
  Li  Li1422  1  0.12500000  0.90533725  0.74853950  1
  Li  Li1423  1  0.12500000  0.90533725  0.99853950  1
  Li  Li1424  1  0.37500000  0.15533725  0.24853950  1
  Li  Li1425  1  0.37500000  0.15533725  0.49853950  1
  Li  Li1426  1  0.37500000  0.15533725  0.74853950  1
  Li  Li1427  1  0.37500000  0.15533725  0.99853950  1
  Li  Li1428  1  0.37500000  0.40533725  0.24853950  1
  Li  Li1429  1  0.37500000  0.40533725  0.49853950  1
  Li  Li1430  1  0.37500000  0.40533725  0.74853950  1
  Li  Li1431  1  0.37500000  0.40533725  0.99853950  1
  Li  Li1432  1  0.37500000  0.65533725  0.24853950  1
  Li  Li1433  1  0.37500000  0.65533725  0.49853950  1
  Li  Li1434  1  0.37500000  0.65533725  0.74853950  1
  Li  Li1435  1  0.37500000  0.65533725  0.99853950  1
  Li  Li1436  1  0.37500000  0.90533725  0.24853950  1
  Li  Li1437  1  0.37500000  0.90533725  0.49853950  1
  Li  Li1438  1  0.37500000  0.90533725  0.74853950  1
  Li  Li1439  1  0.37500000  0.90533725  0.99853950  1
  Li  Li1440  1  0.62500000  0.15533725  0.24853950  1
  Li  Li1441  1  0.62500000  0.15533725  0.49853950  1
  Li  Li1442  1  0.62500000  0.15533725  0.74853950  1
  Li  Li1443  1  0.62500000  0.15533725  0.99853950  1
  Li  Li1444  1  0.62500000  0.40533725  0.24853950  1
  Li  Li1445  1  0.62500000  0.40533725  0.49853950  1
  Li  Li1446  1  0.62500000  0.40533725  0.74853950  1
  Li  Li1447  1  0.62500000  0.40533725  0.99853950  1
  Li  Li1448  1  0.62500000  0.65533725  0.24853950  1
  Li  Li1449  1  0.62500000  0.65533725  0.49853950  1
  Li  Li1450  1  0.62500000  0.65533725  0.74853950  1
  Li  Li1451  1  0.62500000  0.65533725  0.99853950  1
  Li  Li1452  1  0.62500000  0.90533725  0.24853950  1
  Li  Li1453  1  0.62500000  0.90533725  0.49853950  1
  Li  Li1454  1  0.62500000  0.90533725  0.74853950  1
  Li  Li1455  1  0.62500000  0.90533725  0.99853950  1
  Li  Li1456  1  0.87500000  0.15533725  0.24853950  1
  Li  Li1457  1  0.87500000  0.15533725  0.49853950  1
  Li  Li1458  1  0.87500000  0.15533725  0.74853950  1
  Li  Li1459  1  0.87500000  0.15533725  0.99853950  1
  Li  Li1460  1  0.87500000  0.40533725  0.24853950  1
  Li  Li1461  1  0.87500000  0.40533725  0.49853950  1
  Li  Li1462  1  0.87500000  0.40533725  0.74853950  1
  Li  Li1463  1  0.87500000  0.40533725  0.99853950  1
  Li  Li1464  1  0.87500000  0.65533725  0.24853950  1
  Li  Li1465  1  0.87500000  0.65533725  0.49853950  1
  Li  Li1466  1  0.87500000  0.65533725  0.74853950  1
  Li  Li1467  1  0.87500000  0.65533725  0.99853950  1
  Li  Li1468  1  0.87500000  0.90533725  0.24853950  1
  Li  Li1469  1  0.87500000  0.90533725  0.49853950  1
  Li  Li1470  1  0.87500000  0.90533725  0.74853950  1
  Li  Li1471  1  0.87500000  0.90533725  0.99853950  1
  Li  Li1472  1  0.00000000  0.21794075  0.12363200  1
  Li  Li1473  1  0.00000000  0.21794075  0.37363200  1
  Li  Li1474  1  0.00000000  0.21794075  0.62363200  1
  Li  Li1475  1  0.00000000  0.21794075  0.87363200  1
  Li  Li1476  1  0.00000000  0.46794075  0.12363200  1
  Li  Li1477  1  0.00000000  0.46794075  0.37363200  1
  Li  Li1478  1  0.00000000  0.46794075  0.62363200  1
  Li  Li1479  1  0.00000000  0.46794075  0.87363200  1
  Li  Li1480  1  0.00000000  0.71794075  0.12363200  1
  Li  Li1481  1  0.00000000  0.71794075  0.37363200  1
  Li  Li1482  1  0.00000000  0.71794075  0.62363200  1
  Li  Li1483  1  0.00000000  0.71794075  0.87363200  1
  Li  Li1484  1  0.00000000  0.96794075  0.12363200  1
  Li  Li1485  1  0.00000000  0.96794075  0.37363200  1
  Li  Li1486  1  0.00000000  0.96794075  0.62363200  1
  Li  Li1487  1  0.00000000  0.96794075  0.87363200  1
  Li  Li1488  1  0.25000000  0.21794075  0.12363200  1
  Li  Li1489  1  0.25000000  0.21794075  0.37363200  1
  Li  Li1490  1  0.25000000  0.21794075  0.62363200  1
  Li  Li1491  1  0.25000000  0.21794075  0.87363200  1
  Li  Li1492  1  0.25000000  0.46794075  0.12363200  1
  Li  Li1493  1  0.25000000  0.46794075  0.37363200  1
  Li  Li1494  1  0.25000000  0.46794075  0.62363200  1
  Li  Li1495  1  0.25000000  0.46794075  0.87363200  1
  Li  Li1496  1  0.25000000  0.71794075  0.12363200  1
  Li  Li1497  1  0.25000000  0.71794075  0.37363200  1
  Li  Li1498  1  0.25000000  0.71794075  0.62363200  1
  Li  Li1499  1  0.25000000  0.71794075  0.87363200  1
  Li  Li1500  1  0.25000000  0.96794075  0.12363200  1
  Li  Li1501  1  0.25000000  0.96794075  0.37363200  1
  Li  Li1502  1  0.25000000  0.96794075  0.62363200  1
  Li  Li1503  1  0.25000000  0.96794075  0.87363200  1
  Li  Li1504  1  0.50000000  0.21794075  0.12363200  1
  Li  Li1505  1  0.50000000  0.21794075  0.37363200  1
  Li  Li1506  1  0.50000000  0.21794075  0.62363200  1
  Li  Li1507  1  0.50000000  0.21794075  0.87363200  1
  Li  Li1508  1  0.50000000  0.46794075  0.12363200  1
  Li  Li1509  1  0.50000000  0.46794075  0.37363200  1
  Li  Li1510  1  0.50000000  0.46794075  0.62363200  1
  Li  Li1511  1  0.50000000  0.46794075  0.87363200  1
  Li  Li1512  1  0.50000000  0.71794075  0.12363200  1
  Li  Li1513  1  0.50000000  0.71794075  0.37363200  1
  Li  Li1514  1  0.50000000  0.71794075  0.62363200  1
  Li  Li1515  1  0.50000000  0.71794075  0.87363200  1
  Li  Li1516  1  0.50000000  0.96794075  0.12363200  1
  Li  Li1517  1  0.50000000  0.96794075  0.37363200  1
  Li  Li1518  1  0.50000000  0.96794075  0.62363200  1
  Li  Li1519  1  0.50000000  0.96794075  0.87363200  1
  Li  Li1520  1  0.75000000  0.21794075  0.12363200  1
  Li  Li1521  1  0.75000000  0.21794075  0.37363200  1
  Li  Li1522  1  0.75000000  0.21794075  0.62363200  1
  Li  Li1523  1  0.75000000  0.21794075  0.87363200  1
  Li  Li1524  1  0.75000000  0.46794075  0.12363200  1
  Li  Li1525  1  0.75000000  0.46794075  0.37363200  1
  Li  Li1526  1  0.75000000  0.46794075  0.62363200  1
  Li  Li1527  1  0.75000000  0.46794075  0.87363200  1
  Li  Li1528  1  0.75000000  0.71794075  0.12363200  1
  Li  Li1529  1  0.75000000  0.71794075  0.37363200  1
  Li  Li1530  1  0.75000000  0.71794075  0.62363200  1
  Li  Li1531  1  0.75000000  0.71794075  0.87363200  1
  Li  Li1532  1  0.75000000  0.96794075  0.12363200  1
  Li  Li1533  1  0.75000000  0.96794075  0.37363200  1
  Li  Li1534  1  0.75000000  0.96794075  0.62363200  1
  Li  Li1535  1  0.75000000  0.96794075  0.87363200  1
  Bi  Bi1536  1  0.00000000  0.00887900  0.21223375  1
  Bi  Bi1537  1  0.00000000  0.00887900  0.46223375  1
  Bi  Bi1538  1  0.00000000  0.00887900  0.71223375  1
  Bi  Bi1539  1  0.00000000  0.00887900  0.96223375  1
  Bi  Bi1540  1  0.00000000  0.25887900  0.21223375  1
  Bi  Bi1541  1  0.00000000  0.25887900  0.46223375  1
  Bi  Bi1542  1  0.00000000  0.25887900  0.71223375  1
  Bi  Bi1543  1  0.00000000  0.25887900  0.96223375  1
  Bi  Bi1544  1  0.00000000  0.50887900  0.21223375  1
  Bi  Bi1545  1  0.00000000  0.50887900  0.46223375  1
  Bi  Bi1546  1  0.00000000  0.50887900  0.71223375  1
  Bi  Bi1547  1  0.00000000  0.50887900  0.96223375  1
  Bi  Bi1548  1  0.00000000  0.75887900  0.21223375  1
  Bi  Bi1549  1  0.00000000  0.75887900  0.46223375  1
  Bi  Bi1550  1  0.00000000  0.75887900  0.71223375  1
  Bi  Bi1551  1  0.00000000  0.75887900  0.96223375  1
  Bi  Bi1552  1  0.25000000  0.00887900  0.21223375  1
  Bi  Bi1553  1  0.25000000  0.00887900  0.46223375  1
  Bi  Bi1554  1  0.25000000  0.00887900  0.71223375  1
  Bi  Bi1555  1  0.25000000  0.00887900  0.96223375  1
  Bi  Bi1556  1  0.25000000  0.25887900  0.21223375  1
  Bi  Bi1557  1  0.25000000  0.25887900  0.46223375  1
  Bi  Bi1558  1  0.25000000  0.25887900  0.71223375  1
  Bi  Bi1559  1  0.25000000  0.25887900  0.96223375  1
  Bi  Bi1560  1  0.25000000  0.50887900  0.21223375  1
  Bi  Bi1561  1  0.25000000  0.50887900  0.46223375  1
  Bi  Bi1562  1  0.25000000  0.50887900  0.71223375  1
  Bi  Bi1563  1  0.25000000  0.50887900  0.96223375  1
  Bi  Bi1564  1  0.25000000  0.75887900  0.21223375  1
  Bi  Bi1565  1  0.25000000  0.75887900  0.46223375  1
  Bi  Bi1566  1  0.25000000  0.75887900  0.71223375  1
  Bi  Bi1567  1  0.25000000  0.75887900  0.96223375  1
  Bi  Bi1568  1  0.50000000  0.00887900  0.21223375  1
  Bi  Bi1569  1  0.50000000  0.00887900  0.46223375  1
  Bi  Bi1570  1  0.50000000  0.00887900  0.71223375  1
  Bi  Bi1571  1  0.50000000  0.00887900  0.96223375  1
  Bi  Bi1572  1  0.50000000  0.25887900  0.21223375  1
  Bi  Bi1573  1  0.50000000  0.25887900  0.46223375  1
  Bi  Bi1574  1  0.50000000  0.25887900  0.71223375  1
  Bi  Bi1575  1  0.50000000  0.25887900  0.96223375  1
  Bi  Bi1576  1  0.50000000  0.50887900  0.21223375  1
  Bi  Bi1577  1  0.50000000  0.50887900  0.46223375  1
  Bi  Bi1578  1  0.50000000  0.50887900  0.71223375  1
  Bi  Bi1579  1  0.50000000  0.50887900  0.96223375  1
  Bi  Bi1580  1  0.50000000  0.75887900  0.21223375  1
  Bi  Bi1581  1  0.50000000  0.75887900  0.46223375  1
  Bi  Bi1582  1  0.50000000  0.75887900  0.71223375  1
  Bi  Bi1583  1  0.50000000  0.75887900  0.96223375  1
  Bi  Bi1584  1  0.75000000  0.00887900  0.21223375  1
  Bi  Bi1585  1  0.75000000  0.00887900  0.46223375  1
  Bi  Bi1586  1  0.75000000  0.00887900  0.71223375  1
  Bi  Bi1587  1  0.75000000  0.00887900  0.96223375  1
  Bi  Bi1588  1  0.75000000  0.25887900  0.21223375  1
  Bi  Bi1589  1  0.75000000  0.25887900  0.46223375  1
  Bi  Bi1590  1  0.75000000  0.25887900  0.71223375  1
  Bi  Bi1591  1  0.75000000  0.25887900  0.96223375  1
  Bi  Bi1592  1  0.75000000  0.50887900  0.21223375  1
  Bi  Bi1593  1  0.75000000  0.50887900  0.46223375  1
  Bi  Bi1594  1  0.75000000  0.50887900  0.71223375  1
  Bi  Bi1595  1  0.75000000  0.50887900  0.96223375  1
  Bi  Bi1596  1  0.75000000  0.75887900  0.21223375  1
  Bi  Bi1597  1  0.75000000  0.75887900  0.46223375  1
  Bi  Bi1598  1  0.75000000  0.75887900  0.71223375  1
  Bi  Bi1599  1  0.75000000  0.75887900  0.96223375  1
  Bi  Bi1600  1  0.00000000  0.02144350  0.07930300  1
  Bi  Bi1601  1  0.00000000  0.02144350  0.32930300  1
  Bi  Bi1602  1  0.00000000  0.02144350  0.57930300  1
  Bi  Bi1603  1  0.00000000  0.02144350  0.82930300  1
  Bi  Bi1604  1  0.00000000  0.27144350  0.07930300  1
  Bi  Bi1605  1  0.00000000  0.27144350  0.32930300  1
  Bi  Bi1606  1  0.00000000  0.27144350  0.57930300  1
  Bi  Bi1607  1  0.00000000  0.27144350  0.82930300  1
  Bi  Bi1608  1  0.00000000  0.52144350  0.07930300  1
  Bi  Bi1609  1  0.00000000  0.52144350  0.32930300  1
  Bi  Bi1610  1  0.00000000  0.52144350  0.57930300  1
  Bi  Bi1611  1  0.00000000  0.52144350  0.82930300  1
  Bi  Bi1612  1  0.00000000  0.77144350  0.07930300  1
  Bi  Bi1613  1  0.00000000  0.77144350  0.32930300  1
  Bi  Bi1614  1  0.00000000  0.77144350  0.57930300  1
  Bi  Bi1615  1  0.00000000  0.77144350  0.82930300  1
  Bi  Bi1616  1  0.25000000  0.02144350  0.07930300  1
  Bi  Bi1617  1  0.25000000  0.02144350  0.32930300  1
  Bi  Bi1618  1  0.25000000  0.02144350  0.57930300  1
  Bi  Bi1619  1  0.25000000  0.02144350  0.82930300  1
  Bi  Bi1620  1  0.25000000  0.27144350  0.07930300  1
  Bi  Bi1621  1  0.25000000  0.27144350  0.32930300  1
  Bi  Bi1622  1  0.25000000  0.27144350  0.57930300  1
  Bi  Bi1623  1  0.25000000  0.27144350  0.82930300  1
  Bi  Bi1624  1  0.25000000  0.52144350  0.07930300  1
  Bi  Bi1625  1  0.25000000  0.52144350  0.32930300  1
  Bi  Bi1626  1  0.25000000  0.52144350  0.57930300  1
  Bi  Bi1627  1  0.25000000  0.52144350  0.82930300  1
  Bi  Bi1628  1  0.25000000  0.77144350  0.07930300  1
  Bi  Bi1629  1  0.25000000  0.77144350  0.32930300  1
  Bi  Bi1630  1  0.25000000  0.77144350  0.57930300  1
  Bi  Bi1631  1  0.25000000  0.77144350  0.82930300  1
  Bi  Bi1632  1  0.50000000  0.02144350  0.07930300  1
  Bi  Bi1633  1  0.50000000  0.02144350  0.32930300  1
  Bi  Bi1634  1  0.50000000  0.02144350  0.57930300  1
  Bi  Bi1635  1  0.50000000  0.02144350  0.82930300  1
  Bi  Bi1636  1  0.50000000  0.27144350  0.07930300  1
  Bi  Bi1637  1  0.50000000  0.27144350  0.32930300  1
  Bi  Bi1638  1  0.50000000  0.27144350  0.57930300  1
  Bi  Bi1639  1  0.50000000  0.27144350  0.82930300  1
  Bi  Bi1640  1  0.50000000  0.52144350  0.07930300  1
  Bi  Bi1641  1  0.50000000  0.52144350  0.32930300  1
  Bi  Bi1642  1  0.50000000  0.52144350  0.57930300  1
  Bi  Bi1643  1  0.50000000  0.52144350  0.82930300  1
  Bi  Bi1644  1  0.50000000  0.77144350  0.07930300  1
  Bi  Bi1645  1  0.50000000  0.77144350  0.32930300  1
  Bi  Bi1646  1  0.50000000  0.77144350  0.57930300  1
  Bi  Bi1647  1  0.50000000  0.77144350  0.82930300  1
  Bi  Bi1648  1  0.75000000  0.02144350  0.07930300  1
  Bi  Bi1649  1  0.75000000  0.02144350  0.32930300  1
  Bi  Bi1650  1  0.75000000  0.02144350  0.57930300  1
  Bi  Bi1651  1  0.75000000  0.02144350  0.82930300  1
  Bi  Bi1652  1  0.75000000  0.27144350  0.07930300  1
  Bi  Bi1653  1  0.75000000  0.27144350  0.32930300  1
  Bi  Bi1654  1  0.75000000  0.27144350  0.57930300  1
  Bi  Bi1655  1  0.75000000  0.27144350  0.82930300  1
  Bi  Bi1656  1  0.75000000  0.52144350  0.07930300  1
  Bi  Bi1657  1  0.75000000  0.52144350  0.32930300  1
  Bi  Bi1658  1  0.75000000  0.52144350  0.57930300  1
  Bi  Bi1659  1  0.75000000  0.52144350  0.82930300  1
  Bi  Bi1660  1  0.75000000  0.77144350  0.07930300  1
  Bi  Bi1661  1  0.75000000  0.77144350  0.32930300  1
  Bi  Bi1662  1  0.75000000  0.77144350  0.57930300  1
  Bi  Bi1663  1  0.75000000  0.77144350  0.82930300  1
  Bi  Bi1664  1  0.12500000  0.10283175  0.20436150  1
  Bi  Bi1665  1  0.12500000  0.10283175  0.45436150  1
  Bi  Bi1666  1  0.12500000  0.10283175  0.70436150  1
  Bi  Bi1667  1  0.12500000  0.10283175  0.95436150  1
  Bi  Bi1668  1  0.12500000  0.35283175  0.20436150  1
  Bi  Bi1669  1  0.12500000  0.35283175  0.45436150  1
  Bi  Bi1670  1  0.12500000  0.35283175  0.70436150  1
  Bi  Bi1671  1  0.12500000  0.35283175  0.95436150  1
  Bi  Bi1672  1  0.12500000  0.60283175  0.20436150  1
  Bi  Bi1673  1  0.12500000  0.60283175  0.45436150  1
  Bi  Bi1674  1  0.12500000  0.60283175  0.70436150  1
  Bi  Bi1675  1  0.12500000  0.60283175  0.95436150  1
  Bi  Bi1676  1  0.12500000  0.85283175  0.20436150  1
  Bi  Bi1677  1  0.12500000  0.85283175  0.45436150  1
  Bi  Bi1678  1  0.12500000  0.85283175  0.70436150  1
  Bi  Bi1679  1  0.12500000  0.85283175  0.95436150  1
  Bi  Bi1680  1  0.37500000  0.10283175  0.20436150  1
  Bi  Bi1681  1  0.37500000  0.10283175  0.45436150  1
  Bi  Bi1682  1  0.37500000  0.10283175  0.70436150  1
  Bi  Bi1683  1  0.37500000  0.10283175  0.95436150  1
  Bi  Bi1684  1  0.37500000  0.35283175  0.20436150  1
  Bi  Bi1685  1  0.37500000  0.35283175  0.45436150  1
  Bi  Bi1686  1  0.37500000  0.35283175  0.70436150  1
  Bi  Bi1687  1  0.37500000  0.35283175  0.95436150  1
  Bi  Bi1688  1  0.37500000  0.60283175  0.20436150  1
  Bi  Bi1689  1  0.37500000  0.60283175  0.45436150  1
  Bi  Bi1690  1  0.37500000  0.60283175  0.70436150  1
  Bi  Bi1691  1  0.37500000  0.60283175  0.95436150  1
  Bi  Bi1692  1  0.37500000  0.85283175  0.20436150  1
  Bi  Bi1693  1  0.37500000  0.85283175  0.45436150  1
  Bi  Bi1694  1  0.37500000  0.85283175  0.70436150  1
  Bi  Bi1695  1  0.37500000  0.85283175  0.95436150  1
  Bi  Bi1696  1  0.62500000  0.10283175  0.20436150  1
  Bi  Bi1697  1  0.62500000  0.10283175  0.45436150  1
  Bi  Bi1698  1  0.62500000  0.10283175  0.70436150  1
  Bi  Bi1699  1  0.62500000  0.10283175  0.95436150  1
  Bi  Bi1700  1  0.62500000  0.35283175  0.20436150  1
  Bi  Bi1701  1  0.62500000  0.35283175  0.45436150  1
  Bi  Bi1702  1  0.62500000  0.35283175  0.70436150  1
  Bi  Bi1703  1  0.62500000  0.35283175  0.95436150  1
  Bi  Bi1704  1  0.62500000  0.60283175  0.20436150  1
  Bi  Bi1705  1  0.62500000  0.60283175  0.45436150  1
  Bi  Bi1706  1  0.62500000  0.60283175  0.70436150  1
  Bi  Bi1707  1  0.62500000  0.60283175  0.95436150  1
  Bi  Bi1708  1  0.62500000  0.85283175  0.20436150  1
  Bi  Bi1709  1  0.62500000  0.85283175  0.45436150  1
  Bi  Bi1710  1  0.62500000  0.85283175  0.70436150  1
  Bi  Bi1711  1  0.62500000  0.85283175  0.95436150  1
  Bi  Bi1712  1  0.87500000  0.10283175  0.20436150  1
  Bi  Bi1713  1  0.87500000  0.10283175  0.45436150  1
  Bi  Bi1714  1  0.87500000  0.10283175  0.70436150  1
  Bi  Bi1715  1  0.87500000  0.10283175  0.95436150  1
  Bi  Bi1716  1  0.87500000  0.35283175  0.20436150  1
  Bi  Bi1717  1  0.87500000  0.35283175  0.45436150  1
  Bi  Bi1718  1  0.87500000  0.35283175  0.70436150  1
  Bi  Bi1719  1  0.87500000  0.35283175  0.95436150  1
  Bi  Bi1720  1  0.87500000  0.60283175  0.20436150  1
  Bi  Bi1721  1  0.87500000  0.60283175  0.45436150  1
  Bi  Bi1722  1  0.87500000  0.60283175  0.70436150  1
  Bi  Bi1723  1  0.87500000  0.60283175  0.95436150  1
  Bi  Bi1724  1  0.87500000  0.85283175  0.20436150  1
  Bi  Bi1725  1  0.87500000  0.85283175  0.45436150  1
  Bi  Bi1726  1  0.87500000  0.85283175  0.70436150  1
  Bi  Bi1727  1  0.87500000  0.85283175  0.95436150  1
  Bi  Bi1728  1  0.12500000  0.11398450  0.08634400  1
  Bi  Bi1729  1  0.12500000  0.11398450  0.33634400  1
  Bi  Bi1730  1  0.12500000  0.11398450  0.58634400  1
  Bi  Bi1731  1  0.12500000  0.11398450  0.83634400  1
  Bi  Bi1732  1  0.12500000  0.36398450  0.08634400  1
  Bi  Bi1733  1  0.12500000  0.36398450  0.33634400  1
  Bi  Bi1734  1  0.12500000  0.36398450  0.58634400  1
  Bi  Bi1735  1  0.12500000  0.36398450  0.83634400  1
  Bi  Bi1736  1  0.12500000  0.61398450  0.08634400  1
  Bi  Bi1737  1  0.12500000  0.61398450  0.33634400  1
  Bi  Bi1738  1  0.12500000  0.61398450  0.58634400  1
  Bi  Bi1739  1  0.12500000  0.61398450  0.83634400  1
  Bi  Bi1740  1  0.12500000  0.86398450  0.08634400  1
  Bi  Bi1741  1  0.12500000  0.86398450  0.33634400  1
  Bi  Bi1742  1  0.12500000  0.86398450  0.58634400  1
  Bi  Bi1743  1  0.12500000  0.86398450  0.83634400  1
  Bi  Bi1744  1  0.37500000  0.11398450  0.08634400  1
  Bi  Bi1745  1  0.37500000  0.11398450  0.33634400  1
  Bi  Bi1746  1  0.37500000  0.11398450  0.58634400  1
  Bi  Bi1747  1  0.37500000  0.11398450  0.83634400  1
  Bi  Bi1748  1  0.37500000  0.36398450  0.08634400  1
  Bi  Bi1749  1  0.37500000  0.36398450  0.33634400  1
  Bi  Bi1750  1  0.37500000  0.36398450  0.58634400  1
  Bi  Bi1751  1  0.37500000  0.36398450  0.83634400  1
  Bi  Bi1752  1  0.37500000  0.61398450  0.08634400  1
  Bi  Bi1753  1  0.37500000  0.61398450  0.33634400  1
  Bi  Bi1754  1  0.37500000  0.61398450  0.58634400  1
  Bi  Bi1755  1  0.37500000  0.61398450  0.83634400  1
  Bi  Bi1756  1  0.37500000  0.86398450  0.08634400  1
  Bi  Bi1757  1  0.37500000  0.86398450  0.33634400  1
  Bi  Bi1758  1  0.37500000  0.86398450  0.58634400  1
  Bi  Bi1759  1  0.37500000  0.86398450  0.83634400  1
  Bi  Bi1760  1  0.62500000  0.11398450  0.08634400  1
  Bi  Bi1761  1  0.62500000  0.11398450  0.33634400  1
  Bi  Bi1762  1  0.62500000  0.11398450  0.58634400  1
  Bi  Bi1763  1  0.62500000  0.11398450  0.83634400  1
  Bi  Bi1764  1  0.62500000  0.36398450  0.08634400  1
  Bi  Bi1765  1  0.62500000  0.36398450  0.33634400  1
  Bi  Bi1766  1  0.62500000  0.36398450  0.58634400  1
  Bi  Bi1767  1  0.62500000  0.36398450  0.83634400  1
  Bi  Bi1768  1  0.62500000  0.61398450  0.08634400  1
  Bi  Bi1769  1  0.62500000  0.61398450  0.33634400  1
  Bi  Bi1770  1  0.62500000  0.61398450  0.58634400  1
  Bi  Bi1771  1  0.62500000  0.61398450  0.83634400  1
  Bi  Bi1772  1  0.62500000  0.86398450  0.08634400  1
  Bi  Bi1773  1  0.62500000  0.86398450  0.33634400  1
  Bi  Bi1774  1  0.62500000  0.86398450  0.58634400  1
  Bi  Bi1775  1  0.62500000  0.86398450  0.83634400  1
  Bi  Bi1776  1  0.87500000  0.11398450  0.08634400  1
  Bi  Bi1777  1  0.87500000  0.11398450  0.33634400  1
  Bi  Bi1778  1  0.87500000  0.11398450  0.58634400  1
  Bi  Bi1779  1  0.87500000  0.11398450  0.83634400  1
  Bi  Bi1780  1  0.87500000  0.36398450  0.08634400  1
  Bi  Bi1781  1  0.87500000  0.36398450  0.33634400  1
  Bi  Bi1782  1  0.87500000  0.36398450  0.58634400  1
  Bi  Bi1783  1  0.87500000  0.36398450  0.83634400  1
  Bi  Bi1784  1  0.87500000  0.61398450  0.08634400  1
  Bi  Bi1785  1  0.87500000  0.61398450  0.33634400  1
  Bi  Bi1786  1  0.87500000  0.61398450  0.58634400  1
  Bi  Bi1787  1  0.87500000  0.61398450  0.83634400  1
  Bi  Bi1788  1  0.87500000  0.86398450  0.08634400  1
  Bi  Bi1789  1  0.87500000  0.86398450  0.33634400  1
  Bi  Bi1790  1  0.87500000  0.86398450  0.58634400  1
  Bi  Bi1791  1  0.87500000  0.86398450  0.83634400  1
  Bi  Bi1792  1  0.00000000  0.13387900  0.03776625  1
  Bi  Bi1793  1  0.00000000  0.13387900  0.28776625  1
  Bi  Bi1794  1  0.00000000  0.13387900  0.53776625  1
  Bi  Bi1795  1  0.00000000  0.13387900  0.78776625  1
  Bi  Bi1796  1  0.00000000  0.38387900  0.03776625  1
  Bi  Bi1797  1  0.00000000  0.38387900  0.28776625  1
  Bi  Bi1798  1  0.00000000  0.38387900  0.53776625  1
  Bi  Bi1799  1  0.00000000  0.38387900  0.78776625  1
  Bi  Bi1800  1  0.00000000  0.63387900  0.03776625  1
  Bi  Bi1801  1  0.00000000  0.63387900  0.28776625  1
  Bi  Bi1802  1  0.00000000  0.63387900  0.53776625  1
  Bi  Bi1803  1  0.00000000  0.63387900  0.78776625  1
  Bi  Bi1804  1  0.00000000  0.88387900  0.03776625  1
  Bi  Bi1805  1  0.00000000  0.88387900  0.28776625  1
  Bi  Bi1806  1  0.00000000  0.88387900  0.53776625  1
  Bi  Bi1807  1  0.00000000  0.88387900  0.78776625  1
  Bi  Bi1808  1  0.25000000  0.13387900  0.03776625  1
  Bi  Bi1809  1  0.25000000  0.13387900  0.28776625  1
  Bi  Bi1810  1  0.25000000  0.13387900  0.53776625  1
  Bi  Bi1811  1  0.25000000  0.13387900  0.78776625  1
  Bi  Bi1812  1  0.25000000  0.38387900  0.03776625  1
  Bi  Bi1813  1  0.25000000  0.38387900  0.28776625  1
  Bi  Bi1814  1  0.25000000  0.38387900  0.53776625  1
  Bi  Bi1815  1  0.25000000  0.38387900  0.78776625  1
  Bi  Bi1816  1  0.25000000  0.63387900  0.03776625  1
  Bi  Bi1817  1  0.25000000  0.63387900  0.28776625  1
  Bi  Bi1818  1  0.25000000  0.63387900  0.53776625  1
  Bi  Bi1819  1  0.25000000  0.63387900  0.78776625  1
  Bi  Bi1820  1  0.25000000  0.88387900  0.03776625  1
  Bi  Bi1821  1  0.25000000  0.88387900  0.28776625  1
  Bi  Bi1822  1  0.25000000  0.88387900  0.53776625  1
  Bi  Bi1823  1  0.25000000  0.88387900  0.78776625  1
  Bi  Bi1824  1  0.50000000  0.13387900  0.03776625  1
  Bi  Bi1825  1  0.50000000  0.13387900  0.28776625  1
  Bi  Bi1826  1  0.50000000  0.13387900  0.53776625  1
  Bi  Bi1827  1  0.50000000  0.13387900  0.78776625  1
  Bi  Bi1828  1  0.50000000  0.38387900  0.03776625  1
  Bi  Bi1829  1  0.50000000  0.38387900  0.28776625  1
  Bi  Bi1830  1  0.50000000  0.38387900  0.53776625  1
  Bi  Bi1831  1  0.50000000  0.38387900  0.78776625  1
  Bi  Bi1832  1  0.50000000  0.63387900  0.03776625  1
  Bi  Bi1833  1  0.50000000  0.63387900  0.28776625  1
  Bi  Bi1834  1  0.50000000  0.63387900  0.53776625  1
  Bi  Bi1835  1  0.50000000  0.63387900  0.78776625  1
  Bi  Bi1836  1  0.50000000  0.88387900  0.03776625  1
  Bi  Bi1837  1  0.50000000  0.88387900  0.28776625  1
  Bi  Bi1838  1  0.50000000  0.88387900  0.53776625  1
  Bi  Bi1839  1  0.50000000  0.88387900  0.78776625  1
  Bi  Bi1840  1  0.75000000  0.13387900  0.03776625  1
  Bi  Bi1841  1  0.75000000  0.13387900  0.28776625  1
  Bi  Bi1842  1  0.75000000  0.13387900  0.53776625  1
  Bi  Bi1843  1  0.75000000  0.13387900  0.78776625  1
  Bi  Bi1844  1  0.75000000  0.38387900  0.03776625  1
  Bi  Bi1845  1  0.75000000  0.38387900  0.28776625  1
  Bi  Bi1846  1  0.75000000  0.38387900  0.53776625  1
  Bi  Bi1847  1  0.75000000  0.38387900  0.78776625  1
  Bi  Bi1848  1  0.75000000  0.63387900  0.03776625  1
  Bi  Bi1849  1  0.75000000  0.63387900  0.28776625  1
  Bi  Bi1850  1  0.75000000  0.63387900  0.53776625  1
  Bi  Bi1851  1  0.75000000  0.63387900  0.78776625  1
  Bi  Bi1852  1  0.75000000  0.88387900  0.03776625  1
  Bi  Bi1853  1  0.75000000  0.88387900  0.28776625  1
  Bi  Bi1854  1  0.75000000  0.88387900  0.53776625  1
  Bi  Bi1855  1  0.75000000  0.88387900  0.78776625  1
  Bi  Bi1856  1  0.00000000  0.14644350  0.17069700  1
  Bi  Bi1857  1  0.00000000  0.14644350  0.42069700  1
  Bi  Bi1858  1  0.00000000  0.14644350  0.67069700  1
  Bi  Bi1859  1  0.00000000  0.14644350  0.92069700  1
  Bi  Bi1860  1  0.00000000  0.39644350  0.17069700  1
  Bi  Bi1861  1  0.00000000  0.39644350  0.42069700  1
  Bi  Bi1862  1  0.00000000  0.39644350  0.67069700  1
  Bi  Bi1863  1  0.00000000  0.39644350  0.92069700  1
  Bi  Bi1864  1  0.00000000  0.64644350  0.17069700  1
  Bi  Bi1865  1  0.00000000  0.64644350  0.42069700  1
  Bi  Bi1866  1  0.00000000  0.64644350  0.67069700  1
  Bi  Bi1867  1  0.00000000  0.64644350  0.92069700  1
  Bi  Bi1868  1  0.00000000  0.89644350  0.17069700  1
  Bi  Bi1869  1  0.00000000  0.89644350  0.42069700  1
  Bi  Bi1870  1  0.00000000  0.89644350  0.67069700  1
  Bi  Bi1871  1  0.00000000  0.89644350  0.92069700  1
  Bi  Bi1872  1  0.25000000  0.14644350  0.17069700  1
  Bi  Bi1873  1  0.25000000  0.14644350  0.42069700  1
  Bi  Bi1874  1  0.25000000  0.14644350  0.67069700  1
  Bi  Bi1875  1  0.25000000  0.14644350  0.92069700  1
  Bi  Bi1876  1  0.25000000  0.39644350  0.17069700  1
  Bi  Bi1877  1  0.25000000  0.39644350  0.42069700  1
  Bi  Bi1878  1  0.25000000  0.39644350  0.67069700  1
  Bi  Bi1879  1  0.25000000  0.39644350  0.92069700  1
  Bi  Bi1880  1  0.25000000  0.64644350  0.17069700  1
  Bi  Bi1881  1  0.25000000  0.64644350  0.42069700  1
  Bi  Bi1882  1  0.25000000  0.64644350  0.67069700  1
  Bi  Bi1883  1  0.25000000  0.64644350  0.92069700  1
  Bi  Bi1884  1  0.25000000  0.89644350  0.17069700  1
  Bi  Bi1885  1  0.25000000  0.89644350  0.42069700  1
  Bi  Bi1886  1  0.25000000  0.89644350  0.67069700  1
  Bi  Bi1887  1  0.25000000  0.89644350  0.92069700  1
  Bi  Bi1888  1  0.50000000  0.14644350  0.17069700  1
  Bi  Bi1889  1  0.50000000  0.14644350  0.42069700  1
  Bi  Bi1890  1  0.50000000  0.14644350  0.67069700  1
  Bi  Bi1891  1  0.50000000  0.14644350  0.92069700  1
  Bi  Bi1892  1  0.50000000  0.39644350  0.17069700  1
  Bi  Bi1893  1  0.50000000  0.39644350  0.42069700  1
  Bi  Bi1894  1  0.50000000  0.39644350  0.67069700  1
  Bi  Bi1895  1  0.50000000  0.39644350  0.92069700  1
  Bi  Bi1896  1  0.50000000  0.64644350  0.17069700  1
  Bi  Bi1897  1  0.50000000  0.64644350  0.42069700  1
  Bi  Bi1898  1  0.50000000  0.64644350  0.67069700  1
  Bi  Bi1899  1  0.50000000  0.64644350  0.92069700  1
  Bi  Bi1900  1  0.50000000  0.89644350  0.17069700  1
  Bi  Bi1901  1  0.50000000  0.89644350  0.42069700  1
  Bi  Bi1902  1  0.50000000  0.89644350  0.67069700  1
  Bi  Bi1903  1  0.50000000  0.89644350  0.92069700  1
  Bi  Bi1904  1  0.75000000  0.14644350  0.17069700  1
  Bi  Bi1905  1  0.75000000  0.14644350  0.42069700  1
  Bi  Bi1906  1  0.75000000  0.14644350  0.67069700  1
  Bi  Bi1907  1  0.75000000  0.14644350  0.92069700  1
  Bi  Bi1908  1  0.75000000  0.39644350  0.17069700  1
  Bi  Bi1909  1  0.75000000  0.39644350  0.42069700  1
  Bi  Bi1910  1  0.75000000  0.39644350  0.67069700  1
  Bi  Bi1911  1  0.75000000  0.39644350  0.92069700  1
  Bi  Bi1912  1  0.75000000  0.64644350  0.17069700  1
  Bi  Bi1913  1  0.75000000  0.64644350  0.42069700  1
  Bi  Bi1914  1  0.75000000  0.64644350  0.67069700  1
  Bi  Bi1915  1  0.75000000  0.64644350  0.92069700  1
  Bi  Bi1916  1  0.75000000  0.89644350  0.17069700  1
  Bi  Bi1917  1  0.75000000  0.89644350  0.42069700  1
  Bi  Bi1918  1  0.75000000  0.89644350  0.67069700  1
  Bi  Bi1919  1  0.75000000  0.89644350  0.92069700  1
  Bi  Bi1920  1  0.12500000  0.22783175  0.04563850  1
  Bi  Bi1921  1  0.12500000  0.22783175  0.29563850  1
  Bi  Bi1922  1  0.12500000  0.22783175  0.54563850  1
  Bi  Bi1923  1  0.12500000  0.22783175  0.79563850  1
  Bi  Bi1924  1  0.12500000  0.47783175  0.04563850  1
  Bi  Bi1925  1  0.12500000  0.47783175  0.29563850  1
  Bi  Bi1926  1  0.12500000  0.47783175  0.54563850  1
  Bi  Bi1927  1  0.12500000  0.47783175  0.79563850  1
  Bi  Bi1928  1  0.12500000  0.72783175  0.04563850  1
  Bi  Bi1929  1  0.12500000  0.72783175  0.29563850  1
  Bi  Bi1930  1  0.12500000  0.72783175  0.54563850  1
  Bi  Bi1931  1  0.12500000  0.72783175  0.79563850  1
  Bi  Bi1932  1  0.12500000  0.97783175  0.04563850  1
  Bi  Bi1933  1  0.12500000  0.97783175  0.29563850  1
  Bi  Bi1934  1  0.12500000  0.97783175  0.54563850  1
  Bi  Bi1935  1  0.12500000  0.97783175  0.79563850  1
  Bi  Bi1936  1  0.37500000  0.22783175  0.04563850  1
  Bi  Bi1937  1  0.37500000  0.22783175  0.29563850  1
  Bi  Bi1938  1  0.37500000  0.22783175  0.54563850  1
  Bi  Bi1939  1  0.37500000  0.22783175  0.79563850  1
  Bi  Bi1940  1  0.37500000  0.47783175  0.04563850  1
  Bi  Bi1941  1  0.37500000  0.47783175  0.29563850  1
  Bi  Bi1942  1  0.37500000  0.47783175  0.54563850  1
  Bi  Bi1943  1  0.37500000  0.47783175  0.79563850  1
  Bi  Bi1944  1  0.37500000  0.72783175  0.04563850  1
  Bi  Bi1945  1  0.37500000  0.72783175  0.29563850  1
  Bi  Bi1946  1  0.37500000  0.72783175  0.54563850  1
  Bi  Bi1947  1  0.37500000  0.72783175  0.79563850  1
  Bi  Bi1948  1  0.37500000  0.97783175  0.04563850  1
  Bi  Bi1949  1  0.37500000  0.97783175  0.29563850  1
  Bi  Bi1950  1  0.37500000  0.97783175  0.54563850  1
  Bi  Bi1951  1  0.37500000  0.97783175  0.79563850  1
  Bi  Bi1952  1  0.62500000  0.22783175  0.04563850  1
  Bi  Bi1953  1  0.62500000  0.22783175  0.29563850  1
  Bi  Bi1954  1  0.62500000  0.22783175  0.54563850  1
  Bi  Bi1955  1  0.62500000  0.22783175  0.79563850  1
  Bi  Bi1956  1  0.62500000  0.47783175  0.04563850  1
  Bi  Bi1957  1  0.62500000  0.47783175  0.29563850  1
  Bi  Bi1958  1  0.62500000  0.47783175  0.54563850  1
  Bi  Bi1959  1  0.62500000  0.47783175  0.79563850  1
  Bi  Bi1960  1  0.62500000  0.72783175  0.04563850  1
  Bi  Bi1961  1  0.62500000  0.72783175  0.29563850  1
  Bi  Bi1962  1  0.62500000  0.72783175  0.54563850  1
  Bi  Bi1963  1  0.62500000  0.72783175  0.79563850  1
  Bi  Bi1964  1  0.62500000  0.97783175  0.04563850  1
  Bi  Bi1965  1  0.62500000  0.97783175  0.29563850  1
  Bi  Bi1966  1  0.62500000  0.97783175  0.54563850  1
  Bi  Bi1967  1  0.62500000  0.97783175  0.79563850  1
  Bi  Bi1968  1  0.87500000  0.22783175  0.04563850  1
  Bi  Bi1969  1  0.87500000  0.22783175  0.29563850  1
  Bi  Bi1970  1  0.87500000  0.22783175  0.54563850  1
  Bi  Bi1971  1  0.87500000  0.22783175  0.79563850  1
  Bi  Bi1972  1  0.87500000  0.47783175  0.04563850  1
  Bi  Bi1973  1  0.87500000  0.47783175  0.29563850  1
  Bi  Bi1974  1  0.87500000  0.47783175  0.54563850  1
  Bi  Bi1975  1  0.87500000  0.47783175  0.79563850  1
  Bi  Bi1976  1  0.87500000  0.72783175  0.04563850  1
  Bi  Bi1977  1  0.87500000  0.72783175  0.29563850  1
  Bi  Bi1978  1  0.87500000  0.72783175  0.54563850  1
  Bi  Bi1979  1  0.87500000  0.72783175  0.79563850  1
  Bi  Bi1980  1  0.87500000  0.97783175  0.04563850  1
  Bi  Bi1981  1  0.87500000  0.97783175  0.29563850  1
  Bi  Bi1982  1  0.87500000  0.97783175  0.54563850  1
  Bi  Bi1983  1  0.87500000  0.97783175  0.79563850  1
  Bi  Bi1984  1  0.12500000  0.23898450  0.16365600  1
  Bi  Bi1985  1  0.12500000  0.23898450  0.41365600  1
  Bi  Bi1986  1  0.12500000  0.23898450  0.66365600  1
  Bi  Bi1987  1  0.12500000  0.23898450  0.91365600  1
  Bi  Bi1988  1  0.12500000  0.48898450  0.16365600  1
  Bi  Bi1989  1  0.12500000  0.48898450  0.41365600  1
  Bi  Bi1990  1  0.12500000  0.48898450  0.66365600  1
  Bi  Bi1991  1  0.12500000  0.48898450  0.91365600  1
  Bi  Bi1992  1  0.12500000  0.73898450  0.16365600  1
  Bi  Bi1993  1  0.12500000  0.73898450  0.41365600  1
  Bi  Bi1994  1  0.12500000  0.73898450  0.66365600  1
  Bi  Bi1995  1  0.12500000  0.73898450  0.91365600  1
  Bi  Bi1996  1  0.12500000  0.98898450  0.16365600  1
  Bi  Bi1997  1  0.12500000  0.98898450  0.41365600  1
  Bi  Bi1998  1  0.12500000  0.98898450  0.66365600  1
  Bi  Bi1999  1  0.12500000  0.98898450  0.91365600  1
  Bi  Bi2000  1  0.37500000  0.23898450  0.16365600  1
  Bi  Bi2001  1  0.37500000  0.23898450  0.41365600  1
  Bi  Bi2002  1  0.37500000  0.23898450  0.66365600  1
  Bi  Bi2003  1  0.37500000  0.23898450  0.91365600  1
  Bi  Bi2004  1  0.37500000  0.48898450  0.16365600  1
  Bi  Bi2005  1  0.37500000  0.48898450  0.41365600  1
  Bi  Bi2006  1  0.37500000  0.48898450  0.66365600  1
  Bi  Bi2007  1  0.37500000  0.48898450  0.91365600  1
  Bi  Bi2008  1  0.37500000  0.73898450  0.16365600  1
  Bi  Bi2009  1  0.37500000  0.73898450  0.41365600  1
  Bi  Bi2010  1  0.37500000  0.73898450  0.66365600  1
  Bi  Bi2011  1  0.37500000  0.73898450  0.91365600  1
  Bi  Bi2012  1  0.37500000  0.98898450  0.16365600  1
  Bi  Bi2013  1  0.37500000  0.98898450  0.41365600  1
  Bi  Bi2014  1  0.37500000  0.98898450  0.66365600  1
  Bi  Bi2015  1  0.37500000  0.98898450  0.91365600  1
  Bi  Bi2016  1  0.62500000  0.23898450  0.16365600  1
  Bi  Bi2017  1  0.62500000  0.23898450  0.41365600  1
  Bi  Bi2018  1  0.62500000  0.23898450  0.66365600  1
  Bi  Bi2019  1  0.62500000  0.23898450  0.91365600  1
  Bi  Bi2020  1  0.62500000  0.48898450  0.16365600  1
  Bi  Bi2021  1  0.62500000  0.48898450  0.41365600  1
  Bi  Bi2022  1  0.62500000  0.48898450  0.66365600  1
  Bi  Bi2023  1  0.62500000  0.48898450  0.91365600  1
  Bi  Bi2024  1  0.62500000  0.73898450  0.16365600  1
  Bi  Bi2025  1  0.62500000  0.73898450  0.41365600  1
  Bi  Bi2026  1  0.62500000  0.73898450  0.66365600  1
  Bi  Bi2027  1  0.62500000  0.73898450  0.91365600  1
  Bi  Bi2028  1  0.62500000  0.98898450  0.16365600  1
  Bi  Bi2029  1  0.62500000  0.98898450  0.41365600  1
  Bi  Bi2030  1  0.62500000  0.98898450  0.66365600  1
  Bi  Bi2031  1  0.62500000  0.98898450  0.91365600  1
  Bi  Bi2032  1  0.87500000  0.23898450  0.16365600  1
  Bi  Bi2033  1  0.87500000  0.23898450  0.41365600  1
  Bi  Bi2034  1  0.87500000  0.23898450  0.66365600  1
  Bi  Bi2035  1  0.87500000  0.23898450  0.91365600  1
  Bi  Bi2036  1  0.87500000  0.48898450  0.16365600  1
  Bi  Bi2037  1  0.87500000  0.48898450  0.41365600  1
  Bi  Bi2038  1  0.87500000  0.48898450  0.66365600  1
  Bi  Bi2039  1  0.87500000  0.48898450  0.91365600  1
  Bi  Bi2040  1  0.87500000  0.73898450  0.16365600  1
  Bi  Bi2041  1  0.87500000  0.73898450  0.41365600  1
  Bi  Bi2042  1  0.87500000  0.73898450  0.66365600  1
  Bi  Bi2043  1  0.87500000  0.73898450  0.91365600  1
  Bi  Bi2044  1  0.87500000  0.98898450  0.16365600  1
  Bi  Bi2045  1  0.87500000  0.98898450  0.41365600  1
  Bi  Bi2046  1  0.87500000  0.98898450  0.66365600  1
  Bi  Bi2047  1  0.87500000  0.98898450  0.91365600  1
  O  O2048  1  0.06016500  0.00584425  0.18573750  1
  O  O2049  1  0.06016500  0.00584425  0.43573750  1
  O  O2050  1  0.06016500  0.00584425  0.68573750  1
  O  O2051  1  0.06016500  0.00584425  0.93573750  1
  O  O2052  1  0.06016500  0.25584425  0.18573750  1
  O  O2053  1  0.06016500  0.25584425  0.43573750  1
  O  O2054  1  0.06016500  0.25584425  0.68573750  1
  O  O2055  1  0.06016500  0.25584425  0.93573750  1
  O  O2056  1  0.06016500  0.50584425  0.18573750  1
  O  O2057  1  0.06016500  0.50584425  0.43573750  1
  O  O2058  1  0.06016500  0.50584425  0.68573750  1
  O  O2059  1  0.06016500  0.50584425  0.93573750  1
  O  O2060  1  0.06016500  0.75584425  0.18573750  1
  O  O2061  1  0.06016500  0.75584425  0.43573750  1
  O  O2062  1  0.06016500  0.75584425  0.68573750  1
  O  O2063  1  0.06016500  0.75584425  0.93573750  1
  O  O2064  1  0.31016500  0.00584425  0.18573750  1
  O  O2065  1  0.31016500  0.00584425  0.43573750  1
  O  O2066  1  0.31016500  0.00584425  0.68573750  1
  O  O2067  1  0.31016500  0.00584425  0.93573750  1
  O  O2068  1  0.31016500  0.25584425  0.18573750  1
  O  O2069  1  0.31016500  0.25584425  0.43573750  1
  O  O2070  1  0.31016500  0.25584425  0.68573750  1
  O  O2071  1  0.31016500  0.25584425  0.93573750  1
  O  O2072  1  0.31016500  0.50584425  0.18573750  1
  O  O2073  1  0.31016500  0.50584425  0.43573750  1
  O  O2074  1  0.31016500  0.50584425  0.68573750  1
  O  O2075  1  0.31016500  0.50584425  0.93573750  1
  O  O2076  1  0.31016500  0.75584425  0.18573750  1
  O  O2077  1  0.31016500  0.75584425  0.43573750  1
  O  O2078  1  0.31016500  0.75584425  0.68573750  1
  O  O2079  1  0.31016500  0.75584425  0.93573750  1
  O  O2080  1  0.56016500  0.00584425  0.18573750  1
  O  O2081  1  0.56016500  0.00584425  0.43573750  1
  O  O2082  1  0.56016500  0.00584425  0.68573750  1
  O  O2083  1  0.56016500  0.00584425  0.93573750  1
  O  O2084  1  0.56016500  0.25584425  0.18573750  1
  O  O2085  1  0.56016500  0.25584425  0.43573750  1
  O  O2086  1  0.56016500  0.25584425  0.68573750  1
  O  O2087  1  0.56016500  0.25584425  0.93573750  1
  O  O2088  1  0.56016500  0.50584425  0.18573750  1
  O  O2089  1  0.56016500  0.50584425  0.43573750  1
  O  O2090  1  0.56016500  0.50584425  0.68573750  1
  O  O2091  1  0.56016500  0.50584425  0.93573750  1
  O  O2092  1  0.56016500  0.75584425  0.18573750  1
  O  O2093  1  0.56016500  0.75584425  0.43573750  1
  O  O2094  1  0.56016500  0.75584425  0.68573750  1
  O  O2095  1  0.56016500  0.75584425  0.93573750  1
  O  O2096  1  0.81016500  0.00584425  0.18573750  1
  O  O2097  1  0.81016500  0.00584425  0.43573750  1
  O  O2098  1  0.81016500  0.00584425  0.68573750  1
  O  O2099  1  0.81016500  0.00584425  0.93573750  1
  O  O2100  1  0.81016500  0.25584425  0.18573750  1
  O  O2101  1  0.81016500  0.25584425  0.43573750  1
  O  O2102  1  0.81016500  0.25584425  0.68573750  1
  O  O2103  1  0.81016500  0.25584425  0.93573750  1
  O  O2104  1  0.81016500  0.50584425  0.18573750  1
  O  O2105  1  0.81016500  0.50584425  0.43573750  1
  O  O2106  1  0.81016500  0.50584425  0.68573750  1
  O  O2107  1  0.81016500  0.50584425  0.93573750  1
  O  O2108  1  0.81016500  0.75584425  0.18573750  1
  O  O2109  1  0.81016500  0.75584425  0.43573750  1
  O  O2110  1  0.81016500  0.75584425  0.68573750  1
  O  O2111  1  0.81016500  0.75584425  0.93573750  1
  O  O2112  1  0.18983500  0.00584425  0.18573750  1
  O  O2113  1  0.18983500  0.00584425  0.43573750  1
  O  O2114  1  0.18983500  0.00584425  0.68573750  1
  O  O2115  1  0.18983500  0.00584425  0.93573750  1
  O  O2116  1  0.18983500  0.25584425  0.18573750  1
  O  O2117  1  0.18983500  0.25584425  0.43573750  1
  O  O2118  1  0.18983500  0.25584425  0.68573750  1
  O  O2119  1  0.18983500  0.25584425  0.93573750  1
  O  O2120  1  0.18983500  0.50584425  0.18573750  1
  O  O2121  1  0.18983500  0.50584425  0.43573750  1
  O  O2122  1  0.18983500  0.50584425  0.68573750  1
  O  O2123  1  0.18983500  0.50584425  0.93573750  1
  O  O2124  1  0.18983500  0.75584425  0.18573750  1
  O  O2125  1  0.18983500  0.75584425  0.43573750  1
  O  O2126  1  0.18983500  0.75584425  0.68573750  1
  O  O2127  1  0.18983500  0.75584425  0.93573750  1
  O  O2128  1  0.43983500  0.00584425  0.18573750  1
  O  O2129  1  0.43983500  0.00584425  0.43573750  1
  O  O2130  1  0.43983500  0.00584425  0.68573750  1
  O  O2131  1  0.43983500  0.00584425  0.93573750  1
  O  O2132  1  0.43983500  0.25584425  0.18573750  1
  O  O2133  1  0.43983500  0.25584425  0.43573750  1
  O  O2134  1  0.43983500  0.25584425  0.68573750  1
  O  O2135  1  0.43983500  0.25584425  0.93573750  1
  O  O2136  1  0.43983500  0.50584425  0.18573750  1
  O  O2137  1  0.43983500  0.50584425  0.43573750  1
  O  O2138  1  0.43983500  0.50584425  0.68573750  1
  O  O2139  1  0.43983500  0.50584425  0.93573750  1
  O  O2140  1  0.43983500  0.75584425  0.18573750  1
  O  O2141  1  0.43983500  0.75584425  0.43573750  1
  O  O2142  1  0.43983500  0.75584425  0.68573750  1
  O  O2143  1  0.43983500  0.75584425  0.93573750  1
  O  O2144  1  0.68983500  0.00584425  0.18573750  1
  O  O2145  1  0.68983500  0.00584425  0.43573750  1
  O  O2146  1  0.68983500  0.00584425  0.68573750  1
  O  O2147  1  0.68983500  0.00584425  0.93573750  1
  O  O2148  1  0.68983500  0.25584425  0.18573750  1
  O  O2149  1  0.68983500  0.25584425  0.43573750  1
  O  O2150  1  0.68983500  0.25584425  0.68573750  1
  O  O2151  1  0.68983500  0.25584425  0.93573750  1
  O  O2152  1  0.68983500  0.50584425  0.18573750  1
  O  O2153  1  0.68983500  0.50584425  0.43573750  1
  O  O2154  1  0.68983500  0.50584425  0.68573750  1
  O  O2155  1  0.68983500  0.50584425  0.93573750  1
  O  O2156  1  0.68983500  0.75584425  0.18573750  1
  O  O2157  1  0.68983500  0.75584425  0.43573750  1
  O  O2158  1  0.68983500  0.75584425  0.68573750  1
  O  O2159  1  0.68983500  0.75584425  0.93573750  1
  O  O2160  1  0.93983500  0.00584425  0.18573750  1
  O  O2161  1  0.93983500  0.00584425  0.43573750  1
  O  O2162  1  0.93983500  0.00584425  0.68573750  1
  O  O2163  1  0.93983500  0.00584425  0.93573750  1
  O  O2164  1  0.93983500  0.25584425  0.18573750  1
  O  O2165  1  0.93983500  0.25584425  0.43573750  1
  O  O2166  1  0.93983500  0.25584425  0.68573750  1
  O  O2167  1  0.93983500  0.25584425  0.93573750  1
  O  O2168  1  0.93983500  0.50584425  0.18573750  1
  O  O2169  1  0.93983500  0.50584425  0.43573750  1
  O  O2170  1  0.93983500  0.50584425  0.68573750  1
  O  O2171  1  0.93983500  0.50584425  0.93573750  1
  O  O2172  1  0.93983500  0.75584425  0.18573750  1
  O  O2173  1  0.93983500  0.75584425  0.43573750  1
  O  O2174  1  0.93983500  0.75584425  0.68573750  1
  O  O2175  1  0.93983500  0.75584425  0.93573750  1
  O  O2176  1  0.06260400  0.00001625  0.06210900  1
  O  O2177  1  0.06260400  0.00001625  0.31210900  1
  O  O2178  1  0.06260400  0.00001625  0.56210900  1
  O  O2179  1  0.06260400  0.00001625  0.81210900  1
  O  O2180  1  0.06260400  0.25001625  0.06210900  1
  O  O2181  1  0.06260400  0.25001625  0.31210900  1
  O  O2182  1  0.06260400  0.25001625  0.56210900  1
  O  O2183  1  0.06260400  0.25001625  0.81210900  1
  O  O2184  1  0.06260400  0.50001625  0.06210900  1
  O  O2185  1  0.06260400  0.50001625  0.31210900  1
  O  O2186  1  0.06260400  0.50001625  0.56210900  1
  O  O2187  1  0.06260400  0.50001625  0.81210900  1
  O  O2188  1  0.06260400  0.75001625  0.06210900  1
  O  O2189  1  0.06260400  0.75001625  0.31210900  1
  O  O2190  1  0.06260400  0.75001625  0.56210900  1
  O  O2191  1  0.06260400  0.75001625  0.81210900  1
  O  O2192  1  0.31260400  0.00001625  0.06210900  1
  O  O2193  1  0.31260400  0.00001625  0.31210900  1
  O  O2194  1  0.31260400  0.00001625  0.56210900  1
  O  O2195  1  0.31260400  0.00001625  0.81210900  1
  O  O2196  1  0.31260400  0.25001625  0.06210900  1
  O  O2197  1  0.31260400  0.25001625  0.31210900  1
  O  O2198  1  0.31260400  0.25001625  0.56210900  1
  O  O2199  1  0.31260400  0.25001625  0.81210900  1
  O  O2200  1  0.31260400  0.50001625  0.06210900  1
  O  O2201  1  0.31260400  0.50001625  0.31210900  1
  O  O2202  1  0.31260400  0.50001625  0.56210900  1
  O  O2203  1  0.31260400  0.50001625  0.81210900  1
  O  O2204  1  0.31260400  0.75001625  0.06210900  1
  O  O2205  1  0.31260400  0.75001625  0.31210900  1
  O  O2206  1  0.31260400  0.75001625  0.56210900  1
  O  O2207  1  0.31260400  0.75001625  0.81210900  1
  O  O2208  1  0.56260400  0.00001625  0.06210900  1
  O  O2209  1  0.56260400  0.00001625  0.31210900  1
  O  O2210  1  0.56260400  0.00001625  0.56210900  1
  O  O2211  1  0.56260400  0.00001625  0.81210900  1
  O  O2212  1  0.56260400  0.25001625  0.06210900  1
  O  O2213  1  0.56260400  0.25001625  0.31210900  1
  O  O2214  1  0.56260400  0.25001625  0.56210900  1
  O  O2215  1  0.56260400  0.25001625  0.81210900  1
  O  O2216  1  0.56260400  0.50001625  0.06210900  1
  O  O2217  1  0.56260400  0.50001625  0.31210900  1
  O  O2218  1  0.56260400  0.50001625  0.56210900  1
  O  O2219  1  0.56260400  0.50001625  0.81210900  1
  O  O2220  1  0.56260400  0.75001625  0.06210900  1
  O  O2221  1  0.56260400  0.75001625  0.31210900  1
  O  O2222  1  0.56260400  0.75001625  0.56210900  1
  O  O2223  1  0.56260400  0.75001625  0.81210900  1
  O  O2224  1  0.81260400  0.00001625  0.06210900  1
  O  O2225  1  0.81260400  0.00001625  0.31210900  1
  O  O2226  1  0.81260400  0.00001625  0.56210900  1
  O  O2227  1  0.81260400  0.00001625  0.81210900  1
  O  O2228  1  0.81260400  0.25001625  0.06210900  1
  O  O2229  1  0.81260400  0.25001625  0.31210900  1
  O  O2230  1  0.81260400  0.25001625  0.56210900  1
  O  O2231  1  0.81260400  0.25001625  0.81210900  1
  O  O2232  1  0.81260400  0.50001625  0.06210900  1
  O  O2233  1  0.81260400  0.50001625  0.31210900  1
  O  O2234  1  0.81260400  0.50001625  0.56210900  1
  O  O2235  1  0.81260400  0.50001625  0.81210900  1
  O  O2236  1  0.81260400  0.75001625  0.06210900  1
  O  O2237  1  0.81260400  0.75001625  0.31210900  1
  O  O2238  1  0.81260400  0.75001625  0.56210900  1
  O  O2239  1  0.81260400  0.75001625  0.81210900  1
  O  O2240  1  0.18739600  0.00001625  0.06210900  1
  O  O2241  1  0.18739600  0.00001625  0.31210900  1
  O  O2242  1  0.18739600  0.00001625  0.56210900  1
  O  O2243  1  0.18739600  0.00001625  0.81210900  1
  O  O2244  1  0.18739600  0.25001625  0.06210900  1
  O  O2245  1  0.18739600  0.25001625  0.31210900  1
  O  O2246  1  0.18739600  0.25001625  0.56210900  1
  O  O2247  1  0.18739600  0.25001625  0.81210900  1
  O  O2248  1  0.18739600  0.50001625  0.06210900  1
  O  O2249  1  0.18739600  0.50001625  0.31210900  1
  O  O2250  1  0.18739600  0.50001625  0.56210900  1
  O  O2251  1  0.18739600  0.50001625  0.81210900  1
  O  O2252  1  0.18739600  0.75001625  0.06210900  1
  O  O2253  1  0.18739600  0.75001625  0.31210900  1
  O  O2254  1  0.18739600  0.75001625  0.56210900  1
  O  O2255  1  0.18739600  0.75001625  0.81210900  1
  O  O2256  1  0.43739600  0.00001625  0.06210900  1
  O  O2257  1  0.43739600  0.00001625  0.31210900  1
  O  O2258  1  0.43739600  0.00001625  0.56210900  1
  O  O2259  1  0.43739600  0.00001625  0.81210900  1
  O  O2260  1  0.43739600  0.25001625  0.06210900  1
  O  O2261  1  0.43739600  0.25001625  0.31210900  1
  O  O2262  1  0.43739600  0.25001625  0.56210900  1
  O  O2263  1  0.43739600  0.25001625  0.81210900  1
  O  O2264  1  0.43739600  0.50001625  0.06210900  1
  O  O2265  1  0.43739600  0.50001625  0.31210900  1
  O  O2266  1  0.43739600  0.50001625  0.56210900  1
  O  O2267  1  0.43739600  0.50001625  0.81210900  1
  O  O2268  1  0.43739600  0.75001625  0.06210900  1
  O  O2269  1  0.43739600  0.75001625  0.31210900  1
  O  O2270  1  0.43739600  0.75001625  0.56210900  1
  O  O2271  1  0.43739600  0.75001625  0.81210900  1
  O  O2272  1  0.68739600  0.00001625  0.06210900  1
  O  O2273  1  0.68739600  0.00001625  0.31210900  1
  O  O2274  1  0.68739600  0.00001625  0.56210900  1
  O  O2275  1  0.68739600  0.00001625  0.81210900  1
  O  O2276  1  0.68739600  0.25001625  0.06210900  1
  O  O2277  1  0.68739600  0.25001625  0.31210900  1
  O  O2278  1  0.68739600  0.25001625  0.56210900  1
  O  O2279  1  0.68739600  0.25001625  0.81210900  1
  O  O2280  1  0.68739600  0.50001625  0.06210900  1
  O  O2281  1  0.68739600  0.50001625  0.31210900  1
  O  O2282  1  0.68739600  0.50001625  0.56210900  1
  O  O2283  1  0.68739600  0.50001625  0.81210900  1
  O  O2284  1  0.68739600  0.75001625  0.06210900  1
  O  O2285  1  0.68739600  0.75001625  0.31210900  1
  O  O2286  1  0.68739600  0.75001625  0.56210900  1
  O  O2287  1  0.68739600  0.75001625  0.81210900  1
  O  O2288  1  0.93739600  0.00001625  0.06210900  1
  O  O2289  1  0.93739600  0.00001625  0.31210900  1
  O  O2290  1  0.93739600  0.00001625  0.56210900  1
  O  O2291  1  0.93739600  0.00001625  0.81210900  1
  O  O2292  1  0.93739600  0.25001625  0.06210900  1
  O  O2293  1  0.93739600  0.25001625  0.31210900  1
  O  O2294  1  0.93739600  0.25001625  0.56210900  1
  O  O2295  1  0.93739600  0.25001625  0.81210900  1
  O  O2296  1  0.93739600  0.50001625  0.06210900  1
  O  O2297  1  0.93739600  0.50001625  0.31210900  1
  O  O2298  1  0.93739600  0.50001625  0.56210900  1
  O  O2299  1  0.93739600  0.50001625  0.81210900  1
  O  O2300  1  0.93739600  0.75001625  0.06210900  1
  O  O2301  1  0.93739600  0.75001625  0.31210900  1
  O  O2302  1  0.93739600  0.75001625  0.56210900  1
  O  O2303  1  0.93739600  0.75001625  0.81210900  1
  O  O2304  1  0.12500000  0.00186025  0.01931725  1
  O  O2305  1  0.12500000  0.00186025  0.26931725  1
  O  O2306  1  0.12500000  0.00186025  0.51931725  1
  O  O2307  1  0.12500000  0.00186025  0.76931725  1
  O  O2308  1  0.12500000  0.25186025  0.01931725  1
  O  O2309  1  0.12500000  0.25186025  0.26931725  1
  O  O2310  1  0.12500000  0.25186025  0.51931725  1
  O  O2311  1  0.12500000  0.25186025  0.76931725  1
  O  O2312  1  0.12500000  0.50186025  0.01931725  1
  O  O2313  1  0.12500000  0.50186025  0.26931725  1
  O  O2314  1  0.12500000  0.50186025  0.51931725  1
  O  O2315  1  0.12500000  0.50186025  0.76931725  1
  O  O2316  1  0.12500000  0.75186025  0.01931725  1
  O  O2317  1  0.12500000  0.75186025  0.26931725  1
  O  O2318  1  0.12500000  0.75186025  0.51931725  1
  O  O2319  1  0.12500000  0.75186025  0.76931725  1
  O  O2320  1  0.37500000  0.00186025  0.01931725  1
  O  O2321  1  0.37500000  0.00186025  0.26931725  1
  O  O2322  1  0.37500000  0.00186025  0.51931725  1
  O  O2323  1  0.37500000  0.00186025  0.76931725  1
  O  O2324  1  0.37500000  0.25186025  0.01931725  1
  O  O2325  1  0.37500000  0.25186025  0.26931725  1
  O  O2326  1  0.37500000  0.25186025  0.51931725  1
  O  O2327  1  0.37500000  0.25186025  0.76931725  1
  O  O2328  1  0.37500000  0.50186025  0.01931725  1
  O  O2329  1  0.37500000  0.50186025  0.26931725  1
  O  O2330  1  0.37500000  0.50186025  0.51931725  1
  O  O2331  1  0.37500000  0.50186025  0.76931725  1
  O  O2332  1  0.37500000  0.75186025  0.01931725  1
  O  O2333  1  0.37500000  0.75186025  0.26931725  1
  O  O2334  1  0.37500000  0.75186025  0.51931725  1
  O  O2335  1  0.37500000  0.75186025  0.76931725  1
  O  O2336  1  0.62500000  0.00186025  0.01931725  1
  O  O2337  1  0.62500000  0.00186025  0.26931725  1
  O  O2338  1  0.62500000  0.00186025  0.51931725  1
  O  O2339  1  0.62500000  0.00186025  0.76931725  1
  O  O2340  1  0.62500000  0.25186025  0.01931725  1
  O  O2341  1  0.62500000  0.25186025  0.26931725  1
  O  O2342  1  0.62500000  0.25186025  0.51931725  1
  O  O2343  1  0.62500000  0.25186025  0.76931725  1
  O  O2344  1  0.62500000  0.50186025  0.01931725  1
  O  O2345  1  0.62500000  0.50186025  0.26931725  1
  O  O2346  1  0.62500000  0.50186025  0.51931725  1
  O  O2347  1  0.62500000  0.50186025  0.76931725  1
  O  O2348  1  0.62500000  0.75186025  0.01931725  1
  O  O2349  1  0.62500000  0.75186025  0.26931725  1
  O  O2350  1  0.62500000  0.75186025  0.51931725  1
  O  O2351  1  0.62500000  0.75186025  0.76931725  1
  O  O2352  1  0.87500000  0.00186025  0.01931725  1
  O  O2353  1  0.87500000  0.00186025  0.26931725  1
  O  O2354  1  0.87500000  0.00186025  0.51931725  1
  O  O2355  1  0.87500000  0.00186025  0.76931725  1
  O  O2356  1  0.87500000  0.25186025  0.01931725  1
  O  O2357  1  0.87500000  0.25186025  0.26931725  1
  O  O2358  1  0.87500000  0.25186025  0.51931725  1
  O  O2359  1  0.87500000  0.25186025  0.76931725  1
  O  O2360  1  0.87500000  0.50186025  0.01931725  1
  O  O2361  1  0.87500000  0.50186025  0.26931725  1
  O  O2362  1  0.87500000  0.50186025  0.51931725  1
  O  O2363  1  0.87500000  0.50186025  0.76931725  1
  O  O2364  1  0.87500000  0.75186025  0.01931725  1
  O  O2365  1  0.87500000  0.75186025  0.26931725  1
  O  O2366  1  0.87500000  0.75186025  0.51931725  1
  O  O2367  1  0.87500000  0.75186025  0.76931725  1
  O  O2368  1  0.12500000  0.02099100  0.14652250  1
  O  O2369  1  0.12500000  0.02099100  0.39652250  1
  O  O2370  1  0.12500000  0.02099100  0.64652250  1
  O  O2371  1  0.12500000  0.02099100  0.89652250  1
  O  O2372  1  0.12500000  0.27099100  0.14652250  1
  O  O2373  1  0.12500000  0.27099100  0.39652250  1
  O  O2374  1  0.12500000  0.27099100  0.64652250  1
  O  O2375  1  0.12500000  0.27099100  0.89652250  1
  O  O2376  1  0.12500000  0.52099100  0.14652250  1
  O  O2377  1  0.12500000  0.52099100  0.39652250  1
  O  O2378  1  0.12500000  0.52099100  0.64652250  1
  O  O2379  1  0.12500000  0.52099100  0.89652250  1
  O  O2380  1  0.12500000  0.77099100  0.14652250  1
  O  O2381  1  0.12500000  0.77099100  0.39652250  1
  O  O2382  1  0.12500000  0.77099100  0.64652250  1
  O  O2383  1  0.12500000  0.77099100  0.89652250  1
  O  O2384  1  0.37500000  0.02099100  0.14652250  1
  O  O2385  1  0.37500000  0.02099100  0.39652250  1
  O  O2386  1  0.37500000  0.02099100  0.64652250  1
  O  O2387  1  0.37500000  0.02099100  0.89652250  1
  O  O2388  1  0.37500000  0.27099100  0.14652250  1
  O  O2389  1  0.37500000  0.27099100  0.39652250  1
  O  O2390  1  0.37500000  0.27099100  0.64652250  1
  O  O2391  1  0.37500000  0.27099100  0.89652250  1
  O  O2392  1  0.37500000  0.52099100  0.14652250  1
  O  O2393  1  0.37500000  0.52099100  0.39652250  1
  O  O2394  1  0.37500000  0.52099100  0.64652250  1
  O  O2395  1  0.37500000  0.52099100  0.89652250  1
  O  O2396  1  0.37500000  0.77099100  0.14652250  1
  O  O2397  1  0.37500000  0.77099100  0.39652250  1
  O  O2398  1  0.37500000  0.77099100  0.64652250  1
  O  O2399  1  0.37500000  0.77099100  0.89652250  1
  O  O2400  1  0.62500000  0.02099100  0.14652250  1
  O  O2401  1  0.62500000  0.02099100  0.39652250  1
  O  O2402  1  0.62500000  0.02099100  0.64652250  1
  O  O2403  1  0.62500000  0.02099100  0.89652250  1
  O  O2404  1  0.62500000  0.27099100  0.14652250  1
  O  O2405  1  0.62500000  0.27099100  0.39652250  1
  O  O2406  1  0.62500000  0.27099100  0.64652250  1
  O  O2407  1  0.62500000  0.27099100  0.89652250  1
  O  O2408  1  0.62500000  0.52099100  0.14652250  1
  O  O2409  1  0.62500000  0.52099100  0.39652250  1
  O  O2410  1  0.62500000  0.52099100  0.64652250  1
  O  O2411  1  0.62500000  0.52099100  0.89652250  1
  O  O2412  1  0.62500000  0.77099100  0.14652250  1
  O  O2413  1  0.62500000  0.77099100  0.39652250  1
  O  O2414  1  0.62500000  0.77099100  0.64652250  1
  O  O2415  1  0.62500000  0.77099100  0.89652250  1
  O  O2416  1  0.87500000  0.02099100  0.14652250  1
  O  O2417  1  0.87500000  0.02099100  0.39652250  1
  O  O2418  1  0.87500000  0.02099100  0.64652250  1
  O  O2419  1  0.87500000  0.02099100  0.89652250  1
  O  O2420  1  0.87500000  0.27099100  0.14652250  1
  O  O2421  1  0.87500000  0.27099100  0.39652250  1
  O  O2422  1  0.87500000  0.27099100  0.64652250  1
  O  O2423  1  0.87500000  0.27099100  0.89652250  1
  O  O2424  1  0.87500000  0.52099100  0.14652250  1
  O  O2425  1  0.87500000  0.52099100  0.39652250  1
  O  O2426  1  0.87500000  0.52099100  0.64652250  1
  O  O2427  1  0.87500000  0.52099100  0.89652250  1
  O  O2428  1  0.87500000  0.77099100  0.14652250  1
  O  O2429  1  0.87500000  0.77099100  0.39652250  1
  O  O2430  1  0.87500000  0.77099100  0.64652250  1
  O  O2431  1  0.87500000  0.77099100  0.89652250  1
  O  O2432  1  0.19064150  0.02616875  0.23171025  1
  O  O2433  1  0.19064150  0.02616875  0.48171025  1
  O  O2434  1  0.19064150  0.02616875  0.73171025  1
  O  O2435  1  0.19064150  0.02616875  0.98171025  1
  O  O2436  1  0.19064150  0.27616875  0.23171025  1
  O  O2437  1  0.19064150  0.27616875  0.48171025  1
  O  O2438  1  0.19064150  0.27616875  0.73171025  1
  O  O2439  1  0.19064150  0.27616875  0.98171025  1
  O  O2440  1  0.19064150  0.52616875  0.23171025  1
  O  O2441  1  0.19064150  0.52616875  0.48171025  1
  O  O2442  1  0.19064150  0.52616875  0.73171025  1
  O  O2443  1  0.19064150  0.52616875  0.98171025  1
  O  O2444  1  0.19064150  0.77616875  0.23171025  1
  O  O2445  1  0.19064150  0.77616875  0.48171025  1
  O  O2446  1  0.19064150  0.77616875  0.73171025  1
  O  O2447  1  0.19064150  0.77616875  0.98171025  1
  O  O2448  1  0.44064150  0.02616875  0.23171025  1
  O  O2449  1  0.44064150  0.02616875  0.48171025  1
  O  O2450  1  0.44064150  0.02616875  0.73171025  1
  O  O2451  1  0.44064150  0.02616875  0.98171025  1
  O  O2452  1  0.44064150  0.27616875  0.23171025  1
  O  O2453  1  0.44064150  0.27616875  0.48171025  1
  O  O2454  1  0.44064150  0.27616875  0.73171025  1
  O  O2455  1  0.44064150  0.27616875  0.98171025  1
  O  O2456  1  0.44064150  0.52616875  0.23171025  1
  O  O2457  1  0.44064150  0.52616875  0.48171025  1
  O  O2458  1  0.44064150  0.52616875  0.73171025  1
  O  O2459  1  0.44064150  0.52616875  0.98171025  1
  O  O2460  1  0.44064150  0.77616875  0.23171025  1
  O  O2461  1  0.44064150  0.77616875  0.48171025  1
  O  O2462  1  0.44064150  0.77616875  0.73171025  1
  O  O2463  1  0.44064150  0.77616875  0.98171025  1
  O  O2464  1  0.69064150  0.02616875  0.23171025  1
  O  O2465  1  0.69064150  0.02616875  0.48171025  1
  O  O2466  1  0.69064150  0.02616875  0.73171025  1
  O  O2467  1  0.69064150  0.02616875  0.98171025  1
  O  O2468  1  0.69064150  0.27616875  0.23171025  1
  O  O2469  1  0.69064150  0.27616875  0.48171025  1
  O  O2470  1  0.69064150  0.27616875  0.73171025  1
  O  O2471  1  0.69064150  0.27616875  0.98171025  1
  O  O2472  1  0.69064150  0.52616875  0.23171025  1
  O  O2473  1  0.69064150  0.52616875  0.48171025  1
  O  O2474  1  0.69064150  0.52616875  0.73171025  1
  O  O2475  1  0.69064150  0.52616875  0.98171025  1
  O  O2476  1  0.69064150  0.77616875  0.23171025  1
  O  O2477  1  0.69064150  0.77616875  0.48171025  1
  O  O2478  1  0.69064150  0.77616875  0.73171025  1
  O  O2479  1  0.69064150  0.77616875  0.98171025  1
  O  O2480  1  0.94064150  0.02616875  0.23171025  1
  O  O2481  1  0.94064150  0.02616875  0.48171025  1
  O  O2482  1  0.94064150  0.02616875  0.73171025  1
  O  O2483  1  0.94064150  0.02616875  0.98171025  1
  O  O2484  1  0.94064150  0.27616875  0.23171025  1
  O  O2485  1  0.94064150  0.27616875  0.48171025  1
  O  O2486  1  0.94064150  0.27616875  0.73171025  1
  O  O2487  1  0.94064150  0.27616875  0.98171025  1
  O  O2488  1  0.94064150  0.52616875  0.23171025  1
  O  O2489  1  0.94064150  0.52616875  0.48171025  1
  O  O2490  1  0.94064150  0.52616875  0.73171025  1
  O  O2491  1  0.94064150  0.52616875  0.98171025  1
  O  O2492  1  0.94064150  0.77616875  0.23171025  1
  O  O2493  1  0.94064150  0.77616875  0.48171025  1
  O  O2494  1  0.94064150  0.77616875  0.73171025  1
  O  O2495  1  0.94064150  0.77616875  0.98171025  1
  O  O2496  1  0.05935850  0.02616875  0.23171025  1
  O  O2497  1  0.05935850  0.02616875  0.48171025  1
  O  O2498  1  0.05935850  0.02616875  0.73171025  1
  O  O2499  1  0.05935850  0.02616875  0.98171025  1
  O  O2500  1  0.05935850  0.27616875  0.23171025  1
  O  O2501  1  0.05935850  0.27616875  0.48171025  1
  O  O2502  1  0.05935850  0.27616875  0.73171025  1
  O  O2503  1  0.05935850  0.27616875  0.98171025  1
  O  O2504  1  0.05935850  0.52616875  0.23171025  1
  O  O2505  1  0.05935850  0.52616875  0.48171025  1
  O  O2506  1  0.05935850  0.52616875  0.73171025  1
  O  O2507  1  0.05935850  0.52616875  0.98171025  1
  O  O2508  1  0.05935850  0.77616875  0.23171025  1
  O  O2509  1  0.05935850  0.77616875  0.48171025  1
  O  O2510  1  0.05935850  0.77616875  0.73171025  1
  O  O2511  1  0.05935850  0.77616875  0.98171025  1
  O  O2512  1  0.30935850  0.02616875  0.23171025  1
  O  O2513  1  0.30935850  0.02616875  0.48171025  1
  O  O2514  1  0.30935850  0.02616875  0.73171025  1
  O  O2515  1  0.30935850  0.02616875  0.98171025  1
  O  O2516  1  0.30935850  0.27616875  0.23171025  1
  O  O2517  1  0.30935850  0.27616875  0.48171025  1
  O  O2518  1  0.30935850  0.27616875  0.73171025  1
  O  O2519  1  0.30935850  0.27616875  0.98171025  1
  O  O2520  1  0.30935850  0.52616875  0.23171025  1
  O  O2521  1  0.30935850  0.52616875  0.48171025  1
  O  O2522  1  0.30935850  0.52616875  0.73171025  1
  O  O2523  1  0.30935850  0.52616875  0.98171025  1
  O  O2524  1  0.30935850  0.77616875  0.23171025  1
  O  O2525  1  0.30935850  0.77616875  0.48171025  1
  O  O2526  1  0.30935850  0.77616875  0.73171025  1
  O  O2527  1  0.30935850  0.77616875  0.98171025  1
  O  O2528  1  0.55935850  0.02616875  0.23171025  1
  O  O2529  1  0.55935850  0.02616875  0.48171025  1
  O  O2530  1  0.55935850  0.02616875  0.73171025  1
  O  O2531  1  0.55935850  0.02616875  0.98171025  1
  O  O2532  1  0.55935850  0.27616875  0.23171025  1
  O  O2533  1  0.55935850  0.27616875  0.48171025  1
  O  O2534  1  0.55935850  0.27616875  0.73171025  1
  O  O2535  1  0.55935850  0.27616875  0.98171025  1
  O  O2536  1  0.55935850  0.52616875  0.23171025  1
  O  O2537  1  0.55935850  0.52616875  0.48171025  1
  O  O2538  1  0.55935850  0.52616875  0.73171025  1
  O  O2539  1  0.55935850  0.52616875  0.98171025  1
  O  O2540  1  0.55935850  0.77616875  0.23171025  1
  O  O2541  1  0.55935850  0.77616875  0.48171025  1
  O  O2542  1  0.55935850  0.77616875  0.73171025  1
  O  O2543  1  0.55935850  0.77616875  0.98171025  1
  O  O2544  1  0.80935850  0.02616875  0.23171025  1
  O  O2545  1  0.80935850  0.02616875  0.48171025  1
  O  O2546  1  0.80935850  0.02616875  0.73171025  1
  O  O2547  1  0.80935850  0.02616875  0.98171025  1
  O  O2548  1  0.80935850  0.27616875  0.23171025  1
  O  O2549  1  0.80935850  0.27616875  0.48171025  1
  O  O2550  1  0.80935850  0.27616875  0.73171025  1
  O  O2551  1  0.80935850  0.27616875  0.98171025  1
  O  O2552  1  0.80935850  0.52616875  0.23171025  1
  O  O2553  1  0.80935850  0.52616875  0.48171025  1
  O  O2554  1  0.80935850  0.52616875  0.73171025  1
  O  O2555  1  0.80935850  0.52616875  0.98171025  1
  O  O2556  1  0.80935850  0.77616875  0.23171025  1
  O  O2557  1  0.80935850  0.77616875  0.48171025  1
  O  O2558  1  0.80935850  0.77616875  0.73171025  1
  O  O2559  1  0.80935850  0.77616875  0.98171025  1
  O  O2560  1  0.06375325  0.04001650  0.09389875  1
  O  O2561  1  0.06375325  0.04001650  0.34389875  1
  O  O2562  1  0.06375325  0.04001650  0.59389875  1
  O  O2563  1  0.06375325  0.04001650  0.84389875  1
  O  O2564  1  0.06375325  0.29001650  0.09389875  1
  O  O2565  1  0.06375325  0.29001650  0.34389875  1
  O  O2566  1  0.06375325  0.29001650  0.59389875  1
  O  O2567  1  0.06375325  0.29001650  0.84389875  1
  O  O2568  1  0.06375325  0.54001650  0.09389875  1
  O  O2569  1  0.06375325  0.54001650  0.34389875  1
  O  O2570  1  0.06375325  0.54001650  0.59389875  1
  O  O2571  1  0.06375325  0.54001650  0.84389875  1
  O  O2572  1  0.06375325  0.79001650  0.09389875  1
  O  O2573  1  0.06375325  0.79001650  0.34389875  1
  O  O2574  1  0.06375325  0.79001650  0.59389875  1
  O  O2575  1  0.06375325  0.79001650  0.84389875  1
  O  O2576  1  0.31375325  0.04001650  0.09389875  1
  O  O2577  1  0.31375325  0.04001650  0.34389875  1
  O  O2578  1  0.31375325  0.04001650  0.59389875  1
  O  O2579  1  0.31375325  0.04001650  0.84389875  1
  O  O2580  1  0.31375325  0.29001650  0.09389875  1
  O  O2581  1  0.31375325  0.29001650  0.34389875  1
  O  O2582  1  0.31375325  0.29001650  0.59389875  1
  O  O2583  1  0.31375325  0.29001650  0.84389875  1
  O  O2584  1  0.31375325  0.54001650  0.09389875  1
  O  O2585  1  0.31375325  0.54001650  0.34389875  1
  O  O2586  1  0.31375325  0.54001650  0.59389875  1
  O  O2587  1  0.31375325  0.54001650  0.84389875  1
  O  O2588  1  0.31375325  0.79001650  0.09389875  1
  O  O2589  1  0.31375325  0.79001650  0.34389875  1
  O  O2590  1  0.31375325  0.79001650  0.59389875  1
  O  O2591  1  0.31375325  0.79001650  0.84389875  1
  O  O2592  1  0.56375325  0.04001650  0.09389875  1
  O  O2593  1  0.56375325  0.04001650  0.34389875  1
  O  O2594  1  0.56375325  0.04001650  0.59389875  1
  O  O2595  1  0.56375325  0.04001650  0.84389875  1
  O  O2596  1  0.56375325  0.29001650  0.09389875  1
  O  O2597  1  0.56375325  0.29001650  0.34389875  1
  O  O2598  1  0.56375325  0.29001650  0.59389875  1
  O  O2599  1  0.56375325  0.29001650  0.84389875  1
  O  O2600  1  0.56375325  0.54001650  0.09389875  1
  O  O2601  1  0.56375325  0.54001650  0.34389875  1
  O  O2602  1  0.56375325  0.54001650  0.59389875  1
  O  O2603  1  0.56375325  0.54001650  0.84389875  1
  O  O2604  1  0.56375325  0.79001650  0.09389875  1
  O  O2605  1  0.56375325  0.79001650  0.34389875  1
  O  O2606  1  0.56375325  0.79001650  0.59389875  1
  O  O2607  1  0.56375325  0.79001650  0.84389875  1
  O  O2608  1  0.81375325  0.04001650  0.09389875  1
  O  O2609  1  0.81375325  0.04001650  0.34389875  1
  O  O2610  1  0.81375325  0.04001650  0.59389875  1
  O  O2611  1  0.81375325  0.04001650  0.84389875  1
  O  O2612  1  0.81375325  0.29001650  0.09389875  1
  O  O2613  1  0.81375325  0.29001650  0.34389875  1
  O  O2614  1  0.81375325  0.29001650  0.59389875  1
  O  O2615  1  0.81375325  0.29001650  0.84389875  1
  O  O2616  1  0.81375325  0.54001650  0.09389875  1
  O  O2617  1  0.81375325  0.54001650  0.34389875  1
  O  O2618  1  0.81375325  0.54001650  0.59389875  1
  O  O2619  1  0.81375325  0.54001650  0.84389875  1
  O  O2620  1  0.81375325  0.79001650  0.09389875  1
  O  O2621  1  0.81375325  0.79001650  0.34389875  1
  O  O2622  1  0.81375325  0.79001650  0.59389875  1
  O  O2623  1  0.81375325  0.79001650  0.84389875  1
  O  O2624  1  0.18624675  0.04001650  0.09389875  1
  O  O2625  1  0.18624675  0.04001650  0.34389875  1
  O  O2626  1  0.18624675  0.04001650  0.59389875  1
  O  O2627  1  0.18624675  0.04001650  0.84389875  1
  O  O2628  1  0.18624675  0.29001650  0.09389875  1
  O  O2629  1  0.18624675  0.29001650  0.34389875  1
  O  O2630  1  0.18624675  0.29001650  0.59389875  1
  O  O2631  1  0.18624675  0.29001650  0.84389875  1
  O  O2632  1  0.18624675  0.54001650  0.09389875  1
  O  O2633  1  0.18624675  0.54001650  0.34389875  1
  O  O2634  1  0.18624675  0.54001650  0.59389875  1
  O  O2635  1  0.18624675  0.54001650  0.84389875  1
  O  O2636  1  0.18624675  0.79001650  0.09389875  1
  O  O2637  1  0.18624675  0.79001650  0.34389875  1
  O  O2638  1  0.18624675  0.79001650  0.59389875  1
  O  O2639  1  0.18624675  0.79001650  0.84389875  1
  O  O2640  1  0.43624675  0.04001650  0.09389875  1
  O  O2641  1  0.43624675  0.04001650  0.34389875  1
  O  O2642  1  0.43624675  0.04001650  0.59389875  1
  O  O2643  1  0.43624675  0.04001650  0.84389875  1
  O  O2644  1  0.43624675  0.29001650  0.09389875  1
  O  O2645  1  0.43624675  0.29001650  0.34389875  1
  O  O2646  1  0.43624675  0.29001650  0.59389875  1
  O  O2647  1  0.43624675  0.29001650  0.84389875  1
  O  O2648  1  0.43624675  0.54001650  0.09389875  1
  O  O2649  1  0.43624675  0.54001650  0.34389875  1
  O  O2650  1  0.43624675  0.54001650  0.59389875  1
  O  O2651  1  0.43624675  0.54001650  0.84389875  1
  O  O2652  1  0.43624675  0.79001650  0.09389875  1
  O  O2653  1  0.43624675  0.79001650  0.34389875  1
  O  O2654  1  0.43624675  0.79001650  0.59389875  1
  O  O2655  1  0.43624675  0.79001650  0.84389875  1
  O  O2656  1  0.68624675  0.04001650  0.09389875  1
  O  O2657  1  0.68624675  0.04001650  0.34389875  1
  O  O2658  1  0.68624675  0.04001650  0.59389875  1
  O  O2659  1  0.68624675  0.04001650  0.84389875  1
  O  O2660  1  0.68624675  0.29001650  0.09389875  1
  O  O2661  1  0.68624675  0.29001650  0.34389875  1
  O  O2662  1  0.68624675  0.29001650  0.59389875  1
  O  O2663  1  0.68624675  0.29001650  0.84389875  1
  O  O2664  1  0.68624675  0.54001650  0.09389875  1
  O  O2665  1  0.68624675  0.54001650  0.34389875  1
  O  O2666  1  0.68624675  0.54001650  0.59389875  1
  O  O2667  1  0.68624675  0.54001650  0.84389875  1
  O  O2668  1  0.68624675  0.79001650  0.09389875  1
  O  O2669  1  0.68624675  0.79001650  0.34389875  1
  O  O2670  1  0.68624675  0.79001650  0.59389875  1
  O  O2671  1  0.68624675  0.79001650  0.84389875  1
  O  O2672  1  0.93624675  0.04001650  0.09389875  1
  O  O2673  1  0.93624675  0.04001650  0.34389875  1
  O  O2674  1  0.93624675  0.04001650  0.59389875  1
  O  O2675  1  0.93624675  0.04001650  0.84389875  1
  O  O2676  1  0.93624675  0.29001650  0.09389875  1
  O  O2677  1  0.93624675  0.29001650  0.34389875  1
  O  O2678  1  0.93624675  0.29001650  0.59389875  1
  O  O2679  1  0.93624675  0.29001650  0.84389875  1
  O  O2680  1  0.93624675  0.54001650  0.09389875  1
  O  O2681  1  0.93624675  0.54001650  0.34389875  1
  O  O2682  1  0.93624675  0.54001650  0.59389875  1
  O  O2683  1  0.93624675  0.54001650  0.84389875  1
  O  O2684  1  0.93624675  0.79001650  0.09389875  1
  O  O2685  1  0.93624675  0.79001650  0.34389875  1
  O  O2686  1  0.93624675  0.79001650  0.59389875  1
  O  O2687  1  0.93624675  0.79001650  0.84389875  1
  O  O2688  1  0.00000000  0.04143125  0.04877750  1
  O  O2689  1  0.00000000  0.04143125  0.29877750  1
  O  O2690  1  0.00000000  0.04143125  0.54877750  1
  O  O2691  1  0.00000000  0.04143125  0.79877750  1
  O  O2692  1  0.00000000  0.29143125  0.04877750  1
  O  O2693  1  0.00000000  0.29143125  0.29877750  1
  O  O2694  1  0.00000000  0.29143125  0.54877750  1
  O  O2695  1  0.00000000  0.29143125  0.79877750  1
  O  O2696  1  0.00000000  0.54143125  0.04877750  1
  O  O2697  1  0.00000000  0.54143125  0.29877750  1
  O  O2698  1  0.00000000  0.54143125  0.54877750  1
  O  O2699  1  0.00000000  0.54143125  0.79877750  1
  O  O2700  1  0.00000000  0.79143125  0.04877750  1
  O  O2701  1  0.00000000  0.79143125  0.29877750  1
  O  O2702  1  0.00000000  0.79143125  0.54877750  1
  O  O2703  1  0.00000000  0.79143125  0.79877750  1
  O  O2704  1  0.25000000  0.04143125  0.04877750  1
  O  O2705  1  0.25000000  0.04143125  0.29877750  1
  O  O2706  1  0.25000000  0.04143125  0.54877750  1
  O  O2707  1  0.25000000  0.04143125  0.79877750  1
  O  O2708  1  0.25000000  0.29143125  0.04877750  1
  O  O2709  1  0.25000000  0.29143125  0.29877750  1
  O  O2710  1  0.25000000  0.29143125  0.54877750  1
  O  O2711  1  0.25000000  0.29143125  0.79877750  1
  O  O2712  1  0.25000000  0.54143125  0.04877750  1
  O  O2713  1  0.25000000  0.54143125  0.29877750  1
  O  O2714  1  0.25000000  0.54143125  0.54877750  1
  O  O2715  1  0.25000000  0.54143125  0.79877750  1
  O  O2716  1  0.25000000  0.79143125  0.04877750  1
  O  O2717  1  0.25000000  0.79143125  0.29877750  1
  O  O2718  1  0.25000000  0.79143125  0.54877750  1
  O  O2719  1  0.25000000  0.79143125  0.79877750  1
  O  O2720  1  0.50000000  0.04143125  0.04877750  1
  O  O2721  1  0.50000000  0.04143125  0.29877750  1
  O  O2722  1  0.50000000  0.04143125  0.54877750  1
  O  O2723  1  0.50000000  0.04143125  0.79877750  1
  O  O2724  1  0.50000000  0.29143125  0.04877750  1
  O  O2725  1  0.50000000  0.29143125  0.29877750  1
  O  O2726  1  0.50000000  0.29143125  0.54877750  1
  O  O2727  1  0.50000000  0.29143125  0.79877750  1
  O  O2728  1  0.50000000  0.54143125  0.04877750  1
  O  O2729  1  0.50000000  0.54143125  0.29877750  1
  O  O2730  1  0.50000000  0.54143125  0.54877750  1
  O  O2731  1  0.50000000  0.54143125  0.79877750  1
  O  O2732  1  0.50000000  0.79143125  0.04877750  1
  O  O2733  1  0.50000000  0.79143125  0.29877750  1
  O  O2734  1  0.50000000  0.79143125  0.54877750  1
  O  O2735  1  0.50000000  0.79143125  0.79877750  1
  O  O2736  1  0.75000000  0.04143125  0.04877750  1
  O  O2737  1  0.75000000  0.04143125  0.29877750  1
  O  O2738  1  0.75000000  0.04143125  0.54877750  1
  O  O2739  1  0.75000000  0.04143125  0.79877750  1
  O  O2740  1  0.75000000  0.29143125  0.04877750  1
  O  O2741  1  0.75000000  0.29143125  0.29877750  1
  O  O2742  1  0.75000000  0.29143125  0.54877750  1
  O  O2743  1  0.75000000  0.29143125  0.79877750  1
  O  O2744  1  0.75000000  0.54143125  0.04877750  1
  O  O2745  1  0.75000000  0.54143125  0.29877750  1
  O  O2746  1  0.75000000  0.54143125  0.54877750  1
  O  O2747  1  0.75000000  0.54143125  0.79877750  1
  O  O2748  1  0.75000000  0.79143125  0.04877750  1
  O  O2749  1  0.75000000  0.79143125  0.29877750  1
  O  O2750  1  0.75000000  0.79143125  0.54877750  1
  O  O2751  1  0.75000000  0.79143125  0.79877750  1
  O  O2752  1  0.12500000  0.05991400  0.01462750  1
  O  O2753  1  0.12500000  0.05991400  0.26462750  1
  O  O2754  1  0.12500000  0.05991400  0.51462750  1
  O  O2755  1  0.12500000  0.05991400  0.76462750  1
  O  O2756  1  0.12500000  0.30991400  0.01462750  1
  O  O2757  1  0.12500000  0.30991400  0.26462750  1
  O  O2758  1  0.12500000  0.30991400  0.51462750  1
  O  O2759  1  0.12500000  0.30991400  0.76462750  1
  O  O2760  1  0.12500000  0.55991400  0.01462750  1
  O  O2761  1  0.12500000  0.55991400  0.26462750  1
  O  O2762  1  0.12500000  0.55991400  0.51462750  1
  O  O2763  1  0.12500000  0.55991400  0.76462750  1
  O  O2764  1  0.12500000  0.80991400  0.01462750  1
  O  O2765  1  0.12500000  0.80991400  0.26462750  1
  O  O2766  1  0.12500000  0.80991400  0.51462750  1
  O  O2767  1  0.12500000  0.80991400  0.76462750  1
  O  O2768  1  0.37500000  0.05991400  0.01462750  1
  O  O2769  1  0.37500000  0.05991400  0.26462750  1
  O  O2770  1  0.37500000  0.05991400  0.51462750  1
  O  O2771  1  0.37500000  0.05991400  0.76462750  1
  O  O2772  1  0.37500000  0.30991400  0.01462750  1
  O  O2773  1  0.37500000  0.30991400  0.26462750  1
  O  O2774  1  0.37500000  0.30991400  0.51462750  1
  O  O2775  1  0.37500000  0.30991400  0.76462750  1
  O  O2776  1  0.37500000  0.55991400  0.01462750  1
  O  O2777  1  0.37500000  0.55991400  0.26462750  1
  O  O2778  1  0.37500000  0.55991400  0.51462750  1
  O  O2779  1  0.37500000  0.55991400  0.76462750  1
  O  O2780  1  0.37500000  0.80991400  0.01462750  1
  O  O2781  1  0.37500000  0.80991400  0.26462750  1
  O  O2782  1  0.37500000  0.80991400  0.51462750  1
  O  O2783  1  0.37500000  0.80991400  0.76462750  1
  O  O2784  1  0.62500000  0.05991400  0.01462750  1
  O  O2785  1  0.62500000  0.05991400  0.26462750  1
  O  O2786  1  0.62500000  0.05991400  0.51462750  1
  O  O2787  1  0.62500000  0.05991400  0.76462750  1
  O  O2788  1  0.62500000  0.30991400  0.01462750  1
  O  O2789  1  0.62500000  0.30991400  0.26462750  1
  O  O2790  1  0.62500000  0.30991400  0.51462750  1
  O  O2791  1  0.62500000  0.30991400  0.76462750  1
  O  O2792  1  0.62500000  0.55991400  0.01462750  1
  O  O2793  1  0.62500000  0.55991400  0.26462750  1
  O  O2794  1  0.62500000  0.55991400  0.51462750  1
  O  O2795  1  0.62500000  0.55991400  0.76462750  1
  O  O2796  1  0.62500000  0.80991400  0.01462750  1
  O  O2797  1  0.62500000  0.80991400  0.26462750  1
  O  O2798  1  0.62500000  0.80991400  0.51462750  1
  O  O2799  1  0.62500000  0.80991400  0.76462750  1
  O  O2800  1  0.87500000  0.05991400  0.01462750  1
  O  O2801  1  0.87500000  0.05991400  0.26462750  1
  O  O2802  1  0.87500000  0.05991400  0.51462750  1
  O  O2803  1  0.87500000  0.05991400  0.76462750  1
  O  O2804  1  0.87500000  0.30991400  0.01462750  1
  O  O2805  1  0.87500000  0.30991400  0.26462750  1
  O  O2806  1  0.87500000  0.30991400  0.51462750  1
  O  O2807  1  0.87500000  0.30991400  0.76462750  1
  O  O2808  1  0.87500000  0.55991400  0.01462750  1
  O  O2809  1  0.87500000  0.55991400  0.26462750  1
  O  O2810  1  0.87500000  0.55991400  0.51462750  1
  O  O2811  1  0.87500000  0.55991400  0.76462750  1
  O  O2812  1  0.87500000  0.80991400  0.01462750  1
  O  O2813  1  0.87500000  0.80991400  0.26462750  1
  O  O2814  1  0.87500000  0.80991400  0.51462750  1
  O  O2815  1  0.87500000  0.80991400  0.76462750  1
  O  O2816  1  0.00000000  0.06334575  0.14171975  1
  O  O2817  1  0.00000000  0.06334575  0.39171975  1
  O  O2818  1  0.00000000  0.06334575  0.64171975  1
  O  O2819  1  0.00000000  0.06334575  0.89171975  1
  O  O2820  1  0.00000000  0.31334575  0.14171975  1
  O  O2821  1  0.00000000  0.31334575  0.39171975  1
  O  O2822  1  0.00000000  0.31334575  0.64171975  1
  O  O2823  1  0.00000000  0.31334575  0.89171975  1
  O  O2824  1  0.00000000  0.56334575  0.14171975  1
  O  O2825  1  0.00000000  0.56334575  0.39171975  1
  O  O2826  1  0.00000000  0.56334575  0.64171975  1
  O  O2827  1  0.00000000  0.56334575  0.89171975  1
  O  O2828  1  0.00000000  0.81334575  0.14171975  1
  O  O2829  1  0.00000000  0.81334575  0.39171975  1
  O  O2830  1  0.00000000  0.81334575  0.64171975  1
  O  O2831  1  0.00000000  0.81334575  0.89171975  1
  O  O2832  1  0.25000000  0.06334575  0.14171975  1
  O  O2833  1  0.25000000  0.06334575  0.39171975  1
  O  O2834  1  0.25000000  0.06334575  0.64171975  1
  O  O2835  1  0.25000000  0.06334575  0.89171975  1
  O  O2836  1  0.25000000  0.31334575  0.14171975  1
  O  O2837  1  0.25000000  0.31334575  0.39171975  1
  O  O2838  1  0.25000000  0.31334575  0.64171975  1
  O  O2839  1  0.25000000  0.31334575  0.89171975  1
  O  O2840  1  0.25000000  0.56334575  0.14171975  1
  O  O2841  1  0.25000000  0.56334575  0.39171975  1
  O  O2842  1  0.25000000  0.56334575  0.64171975  1
  O  O2843  1  0.25000000  0.56334575  0.89171975  1
  O  O2844  1  0.25000000  0.81334575  0.14171975  1
  O  O2845  1  0.25000000  0.81334575  0.39171975  1
  O  O2846  1  0.25000000  0.81334575  0.64171975  1
  O  O2847  1  0.25000000  0.81334575  0.89171975  1
  O  O2848  1  0.50000000  0.06334575  0.14171975  1
  O  O2849  1  0.50000000  0.06334575  0.39171975  1
  O  O2850  1  0.50000000  0.06334575  0.64171975  1
  O  O2851  1  0.50000000  0.06334575  0.89171975  1
  O  O2852  1  0.50000000  0.31334575  0.14171975  1
  O  O2853  1  0.50000000  0.31334575  0.39171975  1
  O  O2854  1  0.50000000  0.31334575  0.64171975  1
  O  O2855  1  0.50000000  0.31334575  0.89171975  1
  O  O2856  1  0.50000000  0.56334575  0.14171975  1
  O  O2857  1  0.50000000  0.56334575  0.39171975  1
  O  O2858  1  0.50000000  0.56334575  0.64171975  1
  O  O2859  1  0.50000000  0.56334575  0.89171975  1
  O  O2860  1  0.50000000  0.81334575  0.14171975  1
  O  O2861  1  0.50000000  0.81334575  0.39171975  1
  O  O2862  1  0.50000000  0.81334575  0.64171975  1
  O  O2863  1  0.50000000  0.81334575  0.89171975  1
  O  O2864  1  0.75000000  0.06334575  0.14171975  1
  O  O2865  1  0.75000000  0.06334575  0.39171975  1
  O  O2866  1  0.75000000  0.06334575  0.64171975  1
  O  O2867  1  0.75000000  0.06334575  0.89171975  1
  O  O2868  1  0.75000000  0.31334575  0.14171975  1
  O  O2869  1  0.75000000  0.31334575  0.39171975  1
  O  O2870  1  0.75000000  0.31334575  0.64171975  1
  O  O2871  1  0.75000000  0.31334575  0.89171975  1
  O  O2872  1  0.75000000  0.56334575  0.14171975  1
  O  O2873  1  0.75000000  0.56334575  0.39171975  1
  O  O2874  1  0.75000000  0.56334575  0.64171975  1
  O  O2875  1  0.75000000  0.56334575  0.89171975  1
  O  O2876  1  0.75000000  0.81334575  0.14171975  1
  O  O2877  1  0.75000000  0.81334575  0.39171975  1
  O  O2878  1  0.75000000  0.81334575  0.64171975  1
  O  O2879  1  0.75000000  0.81334575  0.89171975  1
  O  O2880  1  0.12500000  0.08620200  0.06401275  1
  O  O2881  1  0.12500000  0.08620200  0.31401275  1
  O  O2882  1  0.12500000  0.08620200  0.56401275  1
  O  O2883  1  0.12500000  0.08620200  0.81401275  1
  O  O2884  1  0.12500000  0.33620200  0.06401275  1
  O  O2885  1  0.12500000  0.33620200  0.31401275  1
  O  O2886  1  0.12500000  0.33620200  0.56401275  1
  O  O2887  1  0.12500000  0.33620200  0.81401275  1
  O  O2888  1  0.12500000  0.58620200  0.06401275  1
  O  O2889  1  0.12500000  0.58620200  0.31401275  1
  O  O2890  1  0.12500000  0.58620200  0.56401275  1
  O  O2891  1  0.12500000  0.58620200  0.81401275  1
  O  O2892  1  0.12500000  0.83620200  0.06401275  1
  O  O2893  1  0.12500000  0.83620200  0.31401275  1
  O  O2894  1  0.12500000  0.83620200  0.56401275  1
  O  O2895  1  0.12500000  0.83620200  0.81401275  1
  O  O2896  1  0.37500000  0.08620200  0.06401275  1
  O  O2897  1  0.37500000  0.08620200  0.31401275  1
  O  O2898  1  0.37500000  0.08620200  0.56401275  1
  O  O2899  1  0.37500000  0.08620200  0.81401275  1
  O  O2900  1  0.37500000  0.33620200  0.06401275  1
  O  O2901  1  0.37500000  0.33620200  0.31401275  1
  O  O2902  1  0.37500000  0.33620200  0.56401275  1
  O  O2903  1  0.37500000  0.33620200  0.81401275  1
  O  O2904  1  0.37500000  0.58620200  0.06401275  1
  O  O2905  1  0.37500000  0.58620200  0.31401275  1
  O  O2906  1  0.37500000  0.58620200  0.56401275  1
  O  O2907  1  0.37500000  0.58620200  0.81401275  1
  O  O2908  1  0.37500000  0.83620200  0.06401275  1
  O  O2909  1  0.37500000  0.83620200  0.31401275  1
  O  O2910  1  0.37500000  0.83620200  0.56401275  1
  O  O2911  1  0.37500000  0.83620200  0.81401275  1
  O  O2912  1  0.62500000  0.08620200  0.06401275  1
  O  O2913  1  0.62500000  0.08620200  0.31401275  1
  O  O2914  1  0.62500000  0.08620200  0.56401275  1
  O  O2915  1  0.62500000  0.08620200  0.81401275  1
  O  O2916  1  0.62500000  0.33620200  0.06401275  1
  O  O2917  1  0.62500000  0.33620200  0.31401275  1
  O  O2918  1  0.62500000  0.33620200  0.56401275  1
  O  O2919  1  0.62500000  0.33620200  0.81401275  1
  O  O2920  1  0.62500000  0.58620200  0.06401275  1
  O  O2921  1  0.62500000  0.58620200  0.31401275  1
  O  O2922  1  0.62500000  0.58620200  0.56401275  1
  O  O2923  1  0.62500000  0.58620200  0.81401275  1
  O  O2924  1  0.62500000  0.83620200  0.06401275  1
  O  O2925  1  0.62500000  0.83620200  0.31401275  1
  O  O2926  1  0.62500000  0.83620200  0.56401275  1
  O  O2927  1  0.62500000  0.83620200  0.81401275  1
  O  O2928  1  0.87500000  0.08620200  0.06401275  1
  O  O2929  1  0.87500000  0.08620200  0.31401275  1
  O  O2930  1  0.87500000  0.08620200  0.56401275  1
  O  O2931  1  0.87500000  0.08620200  0.81401275  1
  O  O2932  1  0.87500000  0.33620200  0.06401275  1
  O  O2933  1  0.87500000  0.33620200  0.31401275  1
  O  O2934  1  0.87500000  0.33620200  0.56401275  1
  O  O2935  1  0.87500000  0.33620200  0.81401275  1
  O  O2936  1  0.87500000  0.58620200  0.06401275  1
  O  O2937  1  0.87500000  0.58620200  0.31401275  1
  O  O2938  1  0.87500000  0.58620200  0.56401275  1
  O  O2939  1  0.87500000  0.58620200  0.81401275  1
  O  O2940  1  0.87500000  0.83620200  0.06401275  1
  O  O2941  1  0.87500000  0.83620200  0.31401275  1
  O  O2942  1  0.87500000  0.83620200  0.56401275  1
  O  O2943  1  0.87500000  0.83620200  0.81401275  1
  O  O2944  1  0.12500000  0.08341825  0.17355900  1
  O  O2945  1  0.12500000  0.08341825  0.42355900  1
  O  O2946  1  0.12500000  0.08341825  0.67355900  1
  O  O2947  1  0.12500000  0.08341825  0.92355900  1
  O  O2948  1  0.12500000  0.33341825  0.17355900  1
  O  O2949  1  0.12500000  0.33341825  0.42355900  1
  O  O2950  1  0.12500000  0.33341825  0.67355900  1
  O  O2951  1  0.12500000  0.33341825  0.92355900  1
  O  O2952  1  0.12500000  0.58341825  0.17355900  1
  O  O2953  1  0.12500000  0.58341825  0.42355900  1
  O  O2954  1  0.12500000  0.58341825  0.67355900  1
  O  O2955  1  0.12500000  0.58341825  0.92355900  1
  O  O2956  1  0.12500000  0.83341825  0.17355900  1
  O  O2957  1  0.12500000  0.83341825  0.42355900  1
  O  O2958  1  0.12500000  0.83341825  0.67355900  1
  O  O2959  1  0.12500000  0.83341825  0.92355900  1
  O  O2960  1  0.37500000  0.08341825  0.17355900  1
  O  O2961  1  0.37500000  0.08341825  0.42355900  1
  O  O2962  1  0.37500000  0.08341825  0.67355900  1
  O  O2963  1  0.37500000  0.08341825  0.92355900  1
  O  O2964  1  0.37500000  0.33341825  0.17355900  1
  O  O2965  1  0.37500000  0.33341825  0.42355900  1
  O  O2966  1  0.37500000  0.33341825  0.67355900  1
  O  O2967  1  0.37500000  0.33341825  0.92355900  1
  O  O2968  1  0.37500000  0.58341825  0.17355900  1
  O  O2969  1  0.37500000  0.58341825  0.42355900  1
  O  O2970  1  0.37500000  0.58341825  0.67355900  1
  O  O2971  1  0.37500000  0.58341825  0.92355900  1
  O  O2972  1  0.37500000  0.83341825  0.17355900  1
  O  O2973  1  0.37500000  0.83341825  0.42355900  1
  O  O2974  1  0.37500000  0.83341825  0.67355900  1
  O  O2975  1  0.37500000  0.83341825  0.92355900  1
  O  O2976  1  0.62500000  0.08341825  0.17355900  1
  O  O2977  1  0.62500000  0.08341825  0.42355900  1
  O  O2978  1  0.62500000  0.08341825  0.67355900  1
  O  O2979  1  0.62500000  0.08341825  0.92355900  1
  O  O2980  1  0.62500000  0.33341825  0.17355900  1
  O  O2981  1  0.62500000  0.33341825  0.42355900  1
  O  O2982  1  0.62500000  0.33341825  0.67355900  1
  O  O2983  1  0.62500000  0.33341825  0.92355900  1
  O  O2984  1  0.62500000  0.58341825  0.17355900  1
  O  O2985  1  0.62500000  0.58341825  0.42355900  1
  O  O2986  1  0.62500000  0.58341825  0.67355900  1
  O  O2987  1  0.62500000  0.58341825  0.92355900  1
  O  O2988  1  0.62500000  0.83341825  0.17355900  1
  O  O2989  1  0.62500000  0.83341825  0.42355900  1
  O  O2990  1  0.62500000  0.83341825  0.67355900  1
  O  O2991  1  0.62500000  0.83341825  0.92355900  1
  O  O2992  1  0.87500000  0.08341825  0.17355900  1
  O  O2993  1  0.87500000  0.08341825  0.42355900  1
  O  O2994  1  0.87500000  0.08341825  0.67355900  1
  O  O2995  1  0.87500000  0.08341825  0.92355900  1
  O  O2996  1  0.87500000  0.33341825  0.17355900  1
  O  O2997  1  0.87500000  0.33341825  0.42355900  1
  O  O2998  1  0.87500000  0.33341825  0.67355900  1
  O  O2999  1  0.87500000  0.33341825  0.92355900  1
  O  O3000  1  0.87500000  0.58341825  0.17355900  1
  O  O3001  1  0.87500000  0.58341825  0.42355900  1
  O  O3002  1  0.87500000  0.58341825  0.67355900  1
  O  O3003  1  0.87500000  0.58341825  0.92355900  1
  O  O3004  1  0.87500000  0.83341825  0.17355900  1
  O  O3005  1  0.87500000  0.83341825  0.42355900  1
  O  O3006  1  0.87500000  0.83341825  0.67355900  1
  O  O3007  1  0.87500000  0.83341825  0.92355900  1
  O  O3008  1  0.19027225  0.08355700  0.21736525  1
  O  O3009  1  0.19027225  0.08355700  0.46736525  1
  O  O3010  1  0.19027225  0.08355700  0.71736525  1
  O  O3011  1  0.19027225  0.08355700  0.96736525  1
  O  O3012  1  0.19027225  0.33355700  0.21736525  1
  O  O3013  1  0.19027225  0.33355700  0.46736525  1
  O  O3014  1  0.19027225  0.33355700  0.71736525  1
  O  O3015  1  0.19027225  0.33355700  0.96736525  1
  O  O3016  1  0.19027225  0.58355700  0.21736525  1
  O  O3017  1  0.19027225  0.58355700  0.46736525  1
  O  O3018  1  0.19027225  0.58355700  0.71736525  1
  O  O3019  1  0.19027225  0.58355700  0.96736525  1
  O  O3020  1  0.19027225  0.83355700  0.21736525  1
  O  O3021  1  0.19027225  0.83355700  0.46736525  1
  O  O3022  1  0.19027225  0.83355700  0.71736525  1
  O  O3023  1  0.19027225  0.83355700  0.96736525  1
  O  O3024  1  0.44027225  0.08355700  0.21736525  1
  O  O3025  1  0.44027225  0.08355700  0.46736525  1
  O  O3026  1  0.44027225  0.08355700  0.71736525  1
  O  O3027  1  0.44027225  0.08355700  0.96736525  1
  O  O3028  1  0.44027225  0.33355700  0.21736525  1
  O  O3029  1  0.44027225  0.33355700  0.46736525  1
  O  O3030  1  0.44027225  0.33355700  0.71736525  1
  O  O3031  1  0.44027225  0.33355700  0.96736525  1
  O  O3032  1  0.44027225  0.58355700  0.21736525  1
  O  O3033  1  0.44027225  0.58355700  0.46736525  1
  O  O3034  1  0.44027225  0.58355700  0.71736525  1
  O  O3035  1  0.44027225  0.58355700  0.96736525  1
  O  O3036  1  0.44027225  0.83355700  0.21736525  1
  O  O3037  1  0.44027225  0.83355700  0.46736525  1
  O  O3038  1  0.44027225  0.83355700  0.71736525  1
  O  O3039  1  0.44027225  0.83355700  0.96736525  1
  O  O3040  1  0.69027225  0.08355700  0.21736525  1
  O  O3041  1  0.69027225  0.08355700  0.46736525  1
  O  O3042  1  0.69027225  0.08355700  0.71736525  1
  O  O3043  1  0.69027225  0.08355700  0.96736525  1
  O  O3044  1  0.69027225  0.33355700  0.21736525  1
  O  O3045  1  0.69027225  0.33355700  0.46736525  1
  O  O3046  1  0.69027225  0.33355700  0.71736525  1
  O  O3047  1  0.69027225  0.33355700  0.96736525  1
  O  O3048  1  0.69027225  0.58355700  0.21736525  1
  O  O3049  1  0.69027225  0.58355700  0.46736525  1
  O  O3050  1  0.69027225  0.58355700  0.71736525  1
  O  O3051  1  0.69027225  0.58355700  0.96736525  1
  O  O3052  1  0.69027225  0.83355700  0.21736525  1
  O  O3053  1  0.69027225  0.83355700  0.46736525  1
  O  O3054  1  0.69027225  0.83355700  0.71736525  1
  O  O3055  1  0.69027225  0.83355700  0.96736525  1
  O  O3056  1  0.94027225  0.08355700  0.21736525  1
  O  O3057  1  0.94027225  0.08355700  0.46736525  1
  O  O3058  1  0.94027225  0.08355700  0.71736525  1
  O  O3059  1  0.94027225  0.08355700  0.96736525  1
  O  O3060  1  0.94027225  0.33355700  0.21736525  1
  O  O3061  1  0.94027225  0.33355700  0.46736525  1
  O  O3062  1  0.94027225  0.33355700  0.71736525  1
  O  O3063  1  0.94027225  0.33355700  0.96736525  1
  O  O3064  1  0.94027225  0.58355700  0.21736525  1
  O  O3065  1  0.94027225  0.58355700  0.46736525  1
  O  O3066  1  0.94027225  0.58355700  0.71736525  1
  O  O3067  1  0.94027225  0.58355700  0.96736525  1
  O  O3068  1  0.94027225  0.83355700  0.21736525  1
  O  O3069  1  0.94027225  0.83355700  0.46736525  1
  O  O3070  1  0.94027225  0.83355700  0.71736525  1
  O  O3071  1  0.94027225  0.83355700  0.96736525  1
  O  O3072  1  0.05972775  0.08355700  0.21736525  1
  O  O3073  1  0.05972775  0.08355700  0.46736525  1
  O  O3074  1  0.05972775  0.08355700  0.71736525  1
  O  O3075  1  0.05972775  0.08355700  0.96736525  1
  O  O3076  1  0.05972775  0.33355700  0.21736525  1
  O  O3077  1  0.05972775  0.33355700  0.46736525  1
  O  O3078  1  0.05972775  0.33355700  0.71736525  1
  O  O3079  1  0.05972775  0.33355700  0.96736525  1
  O  O3080  1  0.05972775  0.58355700  0.21736525  1
  O  O3081  1  0.05972775  0.58355700  0.46736525  1
  O  O3082  1  0.05972775  0.58355700  0.71736525  1
  O  O3083  1  0.05972775  0.58355700  0.96736525  1
  O  O3084  1  0.05972775  0.83355700  0.21736525  1
  O  O3085  1  0.05972775  0.83355700  0.46736525  1
  O  O3086  1  0.05972775  0.83355700  0.71736525  1
  O  O3087  1  0.05972775  0.83355700  0.96736525  1
  O  O3088  1  0.30972775  0.08355700  0.21736525  1
  O  O3089  1  0.30972775  0.08355700  0.46736525  1
  O  O3090  1  0.30972775  0.08355700  0.71736525  1
  O  O3091  1  0.30972775  0.08355700  0.96736525  1
  O  O3092  1  0.30972775  0.33355700  0.21736525  1
  O  O3093  1  0.30972775  0.33355700  0.46736525  1
  O  O3094  1  0.30972775  0.33355700  0.71736525  1
  O  O3095  1  0.30972775  0.33355700  0.96736525  1
  O  O3096  1  0.30972775  0.58355700  0.21736525  1
  O  O3097  1  0.30972775  0.58355700  0.46736525  1
  O  O3098  1  0.30972775  0.58355700  0.71736525  1
  O  O3099  1  0.30972775  0.58355700  0.96736525  1
  O  O3100  1  0.30972775  0.83355700  0.21736525  1
  O  O3101  1  0.30972775  0.83355700  0.46736525  1
  O  O3102  1  0.30972775  0.83355700  0.71736525  1
  O  O3103  1  0.30972775  0.83355700  0.96736525  1
  O  O3104  1  0.55972775  0.08355700  0.21736525  1
  O  O3105  1  0.55972775  0.08355700  0.46736525  1
  O  O3106  1  0.55972775  0.08355700  0.71736525  1
  O  O3107  1  0.55972775  0.08355700  0.96736525  1
  O  O3108  1  0.55972775  0.33355700  0.21736525  1
  O  O3109  1  0.55972775  0.33355700  0.46736525  1
  O  O3110  1  0.55972775  0.33355700  0.71736525  1
  O  O3111  1  0.55972775  0.33355700  0.96736525  1
  O  O3112  1  0.55972775  0.58355700  0.21736525  1
  O  O3113  1  0.55972775  0.58355700  0.46736525  1
  O  O3114  1  0.55972775  0.58355700  0.71736525  1
  O  O3115  1  0.55972775  0.58355700  0.96736525  1
  O  O3116  1  0.55972775  0.83355700  0.21736525  1
  O  O3117  1  0.55972775  0.83355700  0.46736525  1
  O  O3118  1  0.55972775  0.83355700  0.71736525  1
  O  O3119  1  0.55972775  0.83355700  0.96736525  1
  O  O3120  1  0.80972775  0.08355700  0.21736525  1
  O  O3121  1  0.80972775  0.08355700  0.46736525  1
  O  O3122  1  0.80972775  0.08355700  0.71736525  1
  O  O3123  1  0.80972775  0.08355700  0.96736525  1
  O  O3124  1  0.80972775  0.33355700  0.21736525  1
  O  O3125  1  0.80972775  0.33355700  0.46736525  1
  O  O3126  1  0.80972775  0.33355700  0.71736525  1
  O  O3127  1  0.80972775  0.33355700  0.96736525  1
  O  O3128  1  0.80972775  0.58355700  0.21736525  1
  O  O3129  1  0.80972775  0.58355700  0.46736525  1
  O  O3130  1  0.80972775  0.58355700  0.71736525  1
  O  O3131  1  0.80972775  0.58355700  0.96736525  1
  O  O3132  1  0.80972775  0.83355700  0.21736525  1
  O  O3133  1  0.80972775  0.83355700  0.46736525  1
  O  O3134  1  0.80972775  0.83355700  0.71736525  1
  O  O3135  1  0.80972775  0.83355700  0.96736525  1
  O  O3136  1  0.06405350  0.10017725  0.10752275  1
  O  O3137  1  0.06405350  0.10017725  0.35752275  1
  O  O3138  1  0.06405350  0.10017725  0.60752275  1
  O  O3139  1  0.06405350  0.10017725  0.85752275  1
  O  O3140  1  0.06405350  0.35017725  0.10752275  1
  O  O3141  1  0.06405350  0.35017725  0.35752275  1
  O  O3142  1  0.06405350  0.35017725  0.60752275  1
  O  O3143  1  0.06405350  0.35017725  0.85752275  1
  O  O3144  1  0.06405350  0.60017725  0.10752275  1
  O  O3145  1  0.06405350  0.60017725  0.35752275  1
  O  O3146  1  0.06405350  0.60017725  0.60752275  1
  O  O3147  1  0.06405350  0.60017725  0.85752275  1
  O  O3148  1  0.06405350  0.85017725  0.10752275  1
  O  O3149  1  0.06405350  0.85017725  0.35752275  1
  O  O3150  1  0.06405350  0.85017725  0.60752275  1
  O  O3151  1  0.06405350  0.85017725  0.85752275  1
  O  O3152  1  0.31405350  0.10017725  0.10752275  1
  O  O3153  1  0.31405350  0.10017725  0.35752275  1
  O  O3154  1  0.31405350  0.10017725  0.60752275  1
  O  O3155  1  0.31405350  0.10017725  0.85752275  1
  O  O3156  1  0.31405350  0.35017725  0.10752275  1
  O  O3157  1  0.31405350  0.35017725  0.35752275  1
  O  O3158  1  0.31405350  0.35017725  0.60752275  1
  O  O3159  1  0.31405350  0.35017725  0.85752275  1
  O  O3160  1  0.31405350  0.60017725  0.10752275  1
  O  O3161  1  0.31405350  0.60017725  0.35752275  1
  O  O3162  1  0.31405350  0.60017725  0.60752275  1
  O  O3163  1  0.31405350  0.60017725  0.85752275  1
  O  O3164  1  0.31405350  0.85017725  0.10752275  1
  O  O3165  1  0.31405350  0.85017725  0.35752275  1
  O  O3166  1  0.31405350  0.85017725  0.60752275  1
  O  O3167  1  0.31405350  0.85017725  0.85752275  1
  O  O3168  1  0.56405350  0.10017725  0.10752275  1
  O  O3169  1  0.56405350  0.10017725  0.35752275  1
  O  O3170  1  0.56405350  0.10017725  0.60752275  1
  O  O3171  1  0.56405350  0.10017725  0.85752275  1
  O  O3172  1  0.56405350  0.35017725  0.10752275  1
  O  O3173  1  0.56405350  0.35017725  0.35752275  1
  O  O3174  1  0.56405350  0.35017725  0.60752275  1
  O  O3175  1  0.56405350  0.35017725  0.85752275  1
  O  O3176  1  0.56405350  0.60017725  0.10752275  1
  O  O3177  1  0.56405350  0.60017725  0.35752275  1
  O  O3178  1  0.56405350  0.60017725  0.60752275  1
  O  O3179  1  0.56405350  0.60017725  0.85752275  1
  O  O3180  1  0.56405350  0.85017725  0.10752275  1
  O  O3181  1  0.56405350  0.85017725  0.35752275  1
  O  O3182  1  0.56405350  0.85017725  0.60752275  1
  O  O3183  1  0.56405350  0.85017725  0.85752275  1
  O  O3184  1  0.81405350  0.10017725  0.10752275  1
  O  O3185  1  0.81405350  0.10017725  0.35752275  1
  O  O3186  1  0.81405350  0.10017725  0.60752275  1
  O  O3187  1  0.81405350  0.10017725  0.85752275  1
  O  O3188  1  0.81405350  0.35017725  0.10752275  1
  O  O3189  1  0.81405350  0.35017725  0.35752275  1
  O  O3190  1  0.81405350  0.35017725  0.60752275  1
  O  O3191  1  0.81405350  0.35017725  0.85752275  1
  O  O3192  1  0.81405350  0.60017725  0.10752275  1
  O  O3193  1  0.81405350  0.60017725  0.35752275  1
  O  O3194  1  0.81405350  0.60017725  0.60752275  1
  O  O3195  1  0.81405350  0.60017725  0.85752275  1
  O  O3196  1  0.81405350  0.85017725  0.10752275  1
  O  O3197  1  0.81405350  0.85017725  0.35752275  1
  O  O3198  1  0.81405350  0.85017725  0.60752275  1
  O  O3199  1  0.81405350  0.85017725  0.85752275  1
  O  O3200  1  0.18594650  0.10017725  0.10752275  1
  O  O3201  1  0.18594650  0.10017725  0.35752275  1
  O  O3202  1  0.18594650  0.10017725  0.60752275  1
  O  O3203  1  0.18594650  0.10017725  0.85752275  1
  O  O3204  1  0.18594650  0.35017725  0.10752275  1
  O  O3205  1  0.18594650  0.35017725  0.35752275  1
  O  O3206  1  0.18594650  0.35017725  0.60752275  1
  O  O3207  1  0.18594650  0.35017725  0.85752275  1
  O  O3208  1  0.18594650  0.60017725  0.10752275  1
  O  O3209  1  0.18594650  0.60017725  0.35752275  1
  O  O3210  1  0.18594650  0.60017725  0.60752275  1
  O  O3211  1  0.18594650  0.60017725  0.85752275  1
  O  O3212  1  0.18594650  0.85017725  0.10752275  1
  O  O3213  1  0.18594650  0.85017725  0.35752275  1
  O  O3214  1  0.18594650  0.85017725  0.60752275  1
  O  O3215  1  0.18594650  0.85017725  0.85752275  1
  O  O3216  1  0.43594650  0.10017725  0.10752275  1
  O  O3217  1  0.43594650  0.10017725  0.35752275  1
  O  O3218  1  0.43594650  0.10017725  0.60752275  1
  O  O3219  1  0.43594650  0.10017725  0.85752275  1
  O  O3220  1  0.43594650  0.35017725  0.10752275  1
  O  O3221  1  0.43594650  0.35017725  0.35752275  1
  O  O3222  1  0.43594650  0.35017725  0.60752275  1
  O  O3223  1  0.43594650  0.35017725  0.85752275  1
  O  O3224  1  0.43594650  0.60017725  0.10752275  1
  O  O3225  1  0.43594650  0.60017725  0.35752275  1
  O  O3226  1  0.43594650  0.60017725  0.60752275  1
  O  O3227  1  0.43594650  0.60017725  0.85752275  1
  O  O3228  1  0.43594650  0.85017725  0.10752275  1
  O  O3229  1  0.43594650  0.85017725  0.35752275  1
  O  O3230  1  0.43594650  0.85017725  0.60752275  1
  O  O3231  1  0.43594650  0.85017725  0.85752275  1
  O  O3232  1  0.68594650  0.10017725  0.10752275  1
  O  O3233  1  0.68594650  0.10017725  0.35752275  1
  O  O3234  1  0.68594650  0.10017725  0.60752275  1
  O  O3235  1  0.68594650  0.10017725  0.85752275  1
  O  O3236  1  0.68594650  0.35017725  0.10752275  1
  O  O3237  1  0.68594650  0.35017725  0.35752275  1
  O  O3238  1  0.68594650  0.35017725  0.60752275  1
  O  O3239  1  0.68594650  0.35017725  0.85752275  1
  O  O3240  1  0.68594650  0.60017725  0.10752275  1
  O  O3241  1  0.68594650  0.60017725  0.35752275  1
  O  O3242  1  0.68594650  0.60017725  0.60752275  1
  O  O3243  1  0.68594650  0.60017725  0.85752275  1
  O  O3244  1  0.68594650  0.85017725  0.10752275  1
  O  O3245  1  0.68594650  0.85017725  0.35752275  1
  O  O3246  1  0.68594650  0.85017725  0.60752275  1
  O  O3247  1  0.68594650  0.85017725  0.85752275  1
  O  O3248  1  0.93594650  0.10017725  0.10752275  1
  O  O3249  1  0.93594650  0.10017725  0.35752275  1
  O  O3250  1  0.93594650  0.10017725  0.60752275  1
  O  O3251  1  0.93594650  0.10017725  0.85752275  1
  O  O3252  1  0.93594650  0.35017725  0.10752275  1
  O  O3253  1  0.93594650  0.35017725  0.35752275  1
  O  O3254  1  0.93594650  0.35017725  0.60752275  1
  O  O3255  1  0.93594650  0.35017725  0.85752275  1
  O  O3256  1  0.93594650  0.60017725  0.10752275  1
  O  O3257  1  0.93594650  0.60017725  0.35752275  1
  O  O3258  1  0.93594650  0.60017725  0.60752275  1
  O  O3259  1  0.93594650  0.60017725  0.85752275  1
  O  O3260  1  0.93594650  0.85017725  0.10752275  1
  O  O3261  1  0.93594650  0.85017725  0.35752275  1
  O  O3262  1  0.93594650  0.85017725  0.60752275  1
  O  O3263  1  0.93594650  0.85017725  0.85752275  1
  O  O3264  1  0.00000000  0.10209250  0.02237150  1
  O  O3265  1  0.00000000  0.10209250  0.27237150  1
  O  O3266  1  0.00000000  0.10209250  0.52237150  1
  O  O3267  1  0.00000000  0.10209250  0.77237150  1
  O  O3268  1  0.00000000  0.35209250  0.02237150  1
  O  O3269  1  0.00000000  0.35209250  0.27237150  1
  O  O3270  1  0.00000000  0.35209250  0.52237150  1
  O  O3271  1  0.00000000  0.35209250  0.77237150  1
  O  O3272  1  0.00000000  0.60209250  0.02237150  1
  O  O3273  1  0.00000000  0.60209250  0.27237150  1
  O  O3274  1  0.00000000  0.60209250  0.52237150  1
  O  O3275  1  0.00000000  0.60209250  0.77237150  1
  O  O3276  1  0.00000000  0.85209250  0.02237150  1
  O  O3277  1  0.00000000  0.85209250  0.27237150  1
  O  O3278  1  0.00000000  0.85209250  0.52237150  1
  O  O3279  1  0.00000000  0.85209250  0.77237150  1
  O  O3280  1  0.25000000  0.10209250  0.02237150  1
  O  O3281  1  0.25000000  0.10209250  0.27237150  1
  O  O3282  1  0.25000000  0.10209250  0.52237150  1
  O  O3283  1  0.25000000  0.10209250  0.77237150  1
  O  O3284  1  0.25000000  0.35209250  0.02237150  1
  O  O3285  1  0.25000000  0.35209250  0.27237150  1
  O  O3286  1  0.25000000  0.35209250  0.52237150  1
  O  O3287  1  0.25000000  0.35209250  0.77237150  1
  O  O3288  1  0.25000000  0.60209250  0.02237150  1
  O  O3289  1  0.25000000  0.60209250  0.27237150  1
  O  O3290  1  0.25000000  0.60209250  0.52237150  1
  O  O3291  1  0.25000000  0.60209250  0.77237150  1
  O  O3292  1  0.25000000  0.85209250  0.02237150  1
  O  O3293  1  0.25000000  0.85209250  0.27237150  1
  O  O3294  1  0.25000000  0.85209250  0.52237150  1
  O  O3295  1  0.25000000  0.85209250  0.77237150  1
  O  O3296  1  0.50000000  0.10209250  0.02237150  1
  O  O3297  1  0.50000000  0.10209250  0.27237150  1
  O  O3298  1  0.50000000  0.10209250  0.52237150  1
  O  O3299  1  0.50000000  0.10209250  0.77237150  1
  O  O3300  1  0.50000000  0.35209250  0.02237150  1
  O  O3301  1  0.50000000  0.35209250  0.27237150  1
  O  O3302  1  0.50000000  0.35209250  0.52237150  1
  O  O3303  1  0.50000000  0.35209250  0.77237150  1
  O  O3304  1  0.50000000  0.60209250  0.02237150  1
  O  O3305  1  0.50000000  0.60209250  0.27237150  1
  O  O3306  1  0.50000000  0.60209250  0.52237150  1
  O  O3307  1  0.50000000  0.60209250  0.77237150  1
  O  O3308  1  0.50000000  0.85209250  0.02237150  1
  O  O3309  1  0.50000000  0.85209250  0.27237150  1
  O  O3310  1  0.50000000  0.85209250  0.52237150  1
  O  O3311  1  0.50000000  0.85209250  0.77237150  1
  O  O3312  1  0.75000000  0.10209250  0.02237150  1
  O  O3313  1  0.75000000  0.10209250  0.27237150  1
  O  O3314  1  0.75000000  0.10209250  0.52237150  1
  O  O3315  1  0.75000000  0.10209250  0.77237150  1
  O  O3316  1  0.75000000  0.35209250  0.02237150  1
  O  O3317  1  0.75000000  0.35209250  0.27237150  1
  O  O3318  1  0.75000000  0.35209250  0.52237150  1
  O  O3319  1  0.75000000  0.35209250  0.77237150  1
  O  O3320  1  0.75000000  0.60209250  0.02237150  1
  O  O3321  1  0.75000000  0.60209250  0.27237150  1
  O  O3322  1  0.75000000  0.60209250  0.52237150  1
  O  O3323  1  0.75000000  0.60209250  0.77237150  1
  O  O3324  1  0.75000000  0.85209250  0.02237150  1
  O  O3325  1  0.75000000  0.85209250  0.27237150  1
  O  O3326  1  0.75000000  0.85209250  0.52237150  1
  O  O3327  1  0.75000000  0.85209250  0.77237150  1
  O  O3328  1  0.00000000  0.12088000  0.14596350  1
  O  O3329  1  0.00000000  0.12088000  0.39596350  1
  O  O3330  1  0.00000000  0.12088000  0.64596350  1
  O  O3331  1  0.00000000  0.12088000  0.89596350  1
  O  O3332  1  0.00000000  0.37088000  0.14596350  1
  O  O3333  1  0.00000000  0.37088000  0.39596350  1
  O  O3334  1  0.00000000  0.37088000  0.64596350  1
  O  O3335  1  0.00000000  0.37088000  0.89596350  1
  O  O3336  1  0.00000000  0.62088000  0.14596350  1
  O  O3337  1  0.00000000  0.62088000  0.39596350  1
  O  O3338  1  0.00000000  0.62088000  0.64596350  1
  O  O3339  1  0.00000000  0.62088000  0.89596350  1
  O  O3340  1  0.00000000  0.87088000  0.14596350  1
  O  O3341  1  0.00000000  0.87088000  0.39596350  1
  O  O3342  1  0.00000000  0.87088000  0.64596350  1
  O  O3343  1  0.00000000  0.87088000  0.89596350  1
  O  O3344  1  0.25000000  0.12088000  0.14596350  1
  O  O3345  1  0.25000000  0.12088000  0.39596350  1
  O  O3346  1  0.25000000  0.12088000  0.64596350  1
  O  O3347  1  0.25000000  0.12088000  0.89596350  1
  O  O3348  1  0.25000000  0.37088000  0.14596350  1
  O  O3349  1  0.25000000  0.37088000  0.39596350  1
  O  O3350  1  0.25000000  0.37088000  0.64596350  1
  O  O3351  1  0.25000000  0.37088000  0.89596350  1
  O  O3352  1  0.25000000  0.62088000  0.14596350  1
  O  O3353  1  0.25000000  0.62088000  0.39596350  1
  O  O3354  1  0.25000000  0.62088000  0.64596350  1
  O  O3355  1  0.25000000  0.62088000  0.89596350  1
  O  O3356  1  0.25000000  0.87088000  0.14596350  1
  O  O3357  1  0.25000000  0.87088000  0.39596350  1
  O  O3358  1  0.25000000  0.87088000  0.64596350  1
  O  O3359  1  0.25000000  0.87088000  0.89596350  1
  O  O3360  1  0.50000000  0.12088000  0.14596350  1
  O  O3361  1  0.50000000  0.12088000  0.39596350  1
  O  O3362  1  0.50000000  0.12088000  0.64596350  1
  O  O3363  1  0.50000000  0.12088000  0.89596350  1
  O  O3364  1  0.50000000  0.37088000  0.14596350  1
  O  O3365  1  0.50000000  0.37088000  0.39596350  1
  O  O3366  1  0.50000000  0.37088000  0.64596350  1
  O  O3367  1  0.50000000  0.37088000  0.89596350  1
  O  O3368  1  0.50000000  0.62088000  0.14596350  1
  O  O3369  1  0.50000000  0.62088000  0.39596350  1
  O  O3370  1  0.50000000  0.62088000  0.64596350  1
  O  O3371  1  0.50000000  0.62088000  0.89596350  1
  O  O3372  1  0.50000000  0.87088000  0.14596350  1
  O  O3373  1  0.50000000  0.87088000  0.39596350  1
  O  O3374  1  0.50000000  0.87088000  0.64596350  1
  O  O3375  1  0.50000000  0.87088000  0.89596350  1
  O  O3376  1  0.75000000  0.12088000  0.14596350  1
  O  O3377  1  0.75000000  0.12088000  0.39596350  1
  O  O3378  1  0.75000000  0.12088000  0.64596350  1
  O  O3379  1  0.75000000  0.12088000  0.89596350  1
  O  O3380  1  0.75000000  0.37088000  0.14596350  1
  O  O3381  1  0.75000000  0.37088000  0.39596350  1
  O  O3382  1  0.75000000  0.37088000  0.64596350  1
  O  O3383  1  0.75000000  0.37088000  0.89596350  1
  O  O3384  1  0.75000000  0.62088000  0.14596350  1
  O  O3385  1  0.75000000  0.62088000  0.39596350  1
  O  O3386  1  0.75000000  0.62088000  0.64596350  1
  O  O3387  1  0.75000000  0.62088000  0.89596350  1
  O  O3388  1  0.75000000  0.87088000  0.14596350  1
  O  O3389  1  0.75000000  0.87088000  0.39596350  1
  O  O3390  1  0.75000000  0.87088000  0.64596350  1
  O  O3391  1  0.75000000  0.87088000  0.89596350  1
  O  O3392  1  0.06016500  0.13084425  0.06426250  1
  O  O3393  1  0.06016500  0.13084425  0.31426250  1
  O  O3394  1  0.06016500  0.13084425  0.56426250  1
  O  O3395  1  0.06016500  0.13084425  0.81426250  1
  O  O3396  1  0.06016500  0.38084425  0.06426250  1
  O  O3397  1  0.06016500  0.38084425  0.31426250  1
  O  O3398  1  0.06016500  0.38084425  0.56426250  1
  O  O3399  1  0.06016500  0.38084425  0.81426250  1
  O  O3400  1  0.06016500  0.63084425  0.06426250  1
  O  O3401  1  0.06016500  0.63084425  0.31426250  1
  O  O3402  1  0.06016500  0.63084425  0.56426250  1
  O  O3403  1  0.06016500  0.63084425  0.81426250  1
  O  O3404  1  0.06016500  0.88084425  0.06426250  1
  O  O3405  1  0.06016500  0.88084425  0.31426250  1
  O  O3406  1  0.06016500  0.88084425  0.56426250  1
  O  O3407  1  0.06016500  0.88084425  0.81426250  1
  O  O3408  1  0.31016500  0.13084425  0.06426250  1
  O  O3409  1  0.31016500  0.13084425  0.31426250  1
  O  O3410  1  0.31016500  0.13084425  0.56426250  1
  O  O3411  1  0.31016500  0.13084425  0.81426250  1
  O  O3412  1  0.31016500  0.38084425  0.06426250  1
  O  O3413  1  0.31016500  0.38084425  0.31426250  1
  O  O3414  1  0.31016500  0.38084425  0.56426250  1
  O  O3415  1  0.31016500  0.38084425  0.81426250  1
  O  O3416  1  0.31016500  0.63084425  0.06426250  1
  O  O3417  1  0.31016500  0.63084425  0.31426250  1
  O  O3418  1  0.31016500  0.63084425  0.56426250  1
  O  O3419  1  0.31016500  0.63084425  0.81426250  1
  O  O3420  1  0.31016500  0.88084425  0.06426250  1
  O  O3421  1  0.31016500  0.88084425  0.31426250  1
  O  O3422  1  0.31016500  0.88084425  0.56426250  1
  O  O3423  1  0.31016500  0.88084425  0.81426250  1
  O  O3424  1  0.56016500  0.13084425  0.06426250  1
  O  O3425  1  0.56016500  0.13084425  0.31426250  1
  O  O3426  1  0.56016500  0.13084425  0.56426250  1
  O  O3427  1  0.56016500  0.13084425  0.81426250  1
  O  O3428  1  0.56016500  0.38084425  0.06426250  1
  O  O3429  1  0.56016500  0.38084425  0.31426250  1
  O  O3430  1  0.56016500  0.38084425  0.56426250  1
  O  O3431  1  0.56016500  0.38084425  0.81426250  1
  O  O3432  1  0.56016500  0.63084425  0.06426250  1
  O  O3433  1  0.56016500  0.63084425  0.31426250  1
  O  O3434  1  0.56016500  0.63084425  0.56426250  1
  O  O3435  1  0.56016500  0.63084425  0.81426250  1
  O  O3436  1  0.56016500  0.88084425  0.06426250  1
  O  O3437  1  0.56016500  0.88084425  0.31426250  1
  O  O3438  1  0.56016500  0.88084425  0.56426250  1
  O  O3439  1  0.56016500  0.88084425  0.81426250  1
  O  O3440  1  0.81016500  0.13084425  0.06426250  1
  O  O3441  1  0.81016500  0.13084425  0.31426250  1
  O  O3442  1  0.81016500  0.13084425  0.56426250  1
  O  O3443  1  0.81016500  0.13084425  0.81426250  1
  O  O3444  1  0.81016500  0.38084425  0.06426250  1
  O  O3445  1  0.81016500  0.38084425  0.31426250  1
  O  O3446  1  0.81016500  0.38084425  0.56426250  1
  O  O3447  1  0.81016500  0.38084425  0.81426250  1
  O  O3448  1  0.81016500  0.63084425  0.06426250  1
  O  O3449  1  0.81016500  0.63084425  0.31426250  1
  O  O3450  1  0.81016500  0.63084425  0.56426250  1
  O  O3451  1  0.81016500  0.63084425  0.81426250  1
  O  O3452  1  0.81016500  0.88084425  0.06426250  1
  O  O3453  1  0.81016500  0.88084425  0.31426250  1
  O  O3454  1  0.81016500  0.88084425  0.56426250  1
  O  O3455  1  0.81016500  0.88084425  0.81426250  1
  O  O3456  1  0.18983500  0.13084425  0.06426250  1
  O  O3457  1  0.18983500  0.13084425  0.31426250  1
  O  O3458  1  0.18983500  0.13084425  0.56426250  1
  O  O3459  1  0.18983500  0.13084425  0.81426250  1
  O  O3460  1  0.18983500  0.38084425  0.06426250  1
  O  O3461  1  0.18983500  0.38084425  0.31426250  1
  O  O3462  1  0.18983500  0.38084425  0.56426250  1
  O  O3463  1  0.18983500  0.38084425  0.81426250  1
  O  O3464  1  0.18983500  0.63084425  0.06426250  1
  O  O3465  1  0.18983500  0.63084425  0.31426250  1
  O  O3466  1  0.18983500  0.63084425  0.56426250  1
  O  O3467  1  0.18983500  0.63084425  0.81426250  1
  O  O3468  1  0.18983500  0.88084425  0.06426250  1
  O  O3469  1  0.18983500  0.88084425  0.31426250  1
  O  O3470  1  0.18983500  0.88084425  0.56426250  1
  O  O3471  1  0.18983500  0.88084425  0.81426250  1
  O  O3472  1  0.43983500  0.13084425  0.06426250  1
  O  O3473  1  0.43983500  0.13084425  0.31426250  1
  O  O3474  1  0.43983500  0.13084425  0.56426250  1
  O  O3475  1  0.43983500  0.13084425  0.81426250  1
  O  O3476  1  0.43983500  0.38084425  0.06426250  1
  O  O3477  1  0.43983500  0.38084425  0.31426250  1
  O  O3478  1  0.43983500  0.38084425  0.56426250  1
  O  O3479  1  0.43983500  0.38084425  0.81426250  1
  O  O3480  1  0.43983500  0.63084425  0.06426250  1
  O  O3481  1  0.43983500  0.63084425  0.31426250  1
  O  O3482  1  0.43983500  0.63084425  0.56426250  1
  O  O3483  1  0.43983500  0.63084425  0.81426250  1
  O  O3484  1  0.43983500  0.88084425  0.06426250  1
  O  O3485  1  0.43983500  0.88084425  0.31426250  1
  O  O3486  1  0.43983500  0.88084425  0.56426250  1
  O  O3487  1  0.43983500  0.88084425  0.81426250  1
  O  O3488  1  0.68983500  0.13084425  0.06426250  1
  O  O3489  1  0.68983500  0.13084425  0.31426250  1
  O  O3490  1  0.68983500  0.13084425  0.56426250  1
  O  O3491  1  0.68983500  0.13084425  0.81426250  1
  O  O3492  1  0.68983500  0.38084425  0.06426250  1
  O  O3493  1  0.68983500  0.38084425  0.31426250  1
  O  O3494  1  0.68983500  0.38084425  0.56426250  1
  O  O3495  1  0.68983500  0.38084425  0.81426250  1
  O  O3496  1  0.68983500  0.63084425  0.06426250  1
  O  O3497  1  0.68983500  0.63084425  0.31426250  1
  O  O3498  1  0.68983500  0.63084425  0.56426250  1
  O  O3499  1  0.68983500  0.63084425  0.81426250  1
  O  O3500  1  0.68983500  0.88084425  0.06426250  1
  O  O3501  1  0.68983500  0.88084425  0.31426250  1
  O  O3502  1  0.68983500  0.88084425  0.56426250  1
  O  O3503  1  0.68983500  0.88084425  0.81426250  1
  O  O3504  1  0.93983500  0.13084425  0.06426250  1
  O  O3505  1  0.93983500  0.13084425  0.31426250  1
  O  O3506  1  0.93983500  0.13084425  0.56426250  1
  O  O3507  1  0.93983500  0.13084425  0.81426250  1
  O  O3508  1  0.93983500  0.38084425  0.06426250  1
  O  O3509  1  0.93983500  0.38084425  0.31426250  1
  O  O3510  1  0.93983500  0.38084425  0.56426250  1
  O  O3511  1  0.93983500  0.38084425  0.81426250  1
  O  O3512  1  0.93983500  0.63084425  0.06426250  1
  O  O3513  1  0.93983500  0.63084425  0.31426250  1
  O  O3514  1  0.93983500  0.63084425  0.56426250  1
  O  O3515  1  0.93983500  0.63084425  0.81426250  1
  O  O3516  1  0.93983500  0.88084425  0.06426250  1
  O  O3517  1  0.93983500  0.88084425  0.31426250  1
  O  O3518  1  0.93983500  0.88084425  0.56426250  1
  O  O3519  1  0.93983500  0.88084425  0.81426250  1
  O  O3520  1  0.06260400  0.12501625  0.18789100  1
  O  O3521  1  0.06260400  0.12501625  0.43789100  1
  O  O3522  1  0.06260400  0.12501625  0.68789100  1
  O  O3523  1  0.06260400  0.12501625  0.93789100  1
  O  O3524  1  0.06260400  0.37501625  0.18789100  1
  O  O3525  1  0.06260400  0.37501625  0.43789100  1
  O  O3526  1  0.06260400  0.37501625  0.68789100  1
  O  O3527  1  0.06260400  0.37501625  0.93789100  1
  O  O3528  1  0.06260400  0.62501625  0.18789100  1
  O  O3529  1  0.06260400  0.62501625  0.43789100  1
  O  O3530  1  0.06260400  0.62501625  0.68789100  1
  O  O3531  1  0.06260400  0.62501625  0.93789100  1
  O  O3532  1  0.06260400  0.87501625  0.18789100  1
  O  O3533  1  0.06260400  0.87501625  0.43789100  1
  O  O3534  1  0.06260400  0.87501625  0.68789100  1
  O  O3535  1  0.06260400  0.87501625  0.93789100  1
  O  O3536  1  0.31260400  0.12501625  0.18789100  1
  O  O3537  1  0.31260400  0.12501625  0.43789100  1
  O  O3538  1  0.31260400  0.12501625  0.68789100  1
  O  O3539  1  0.31260400  0.12501625  0.93789100  1
  O  O3540  1  0.31260400  0.37501625  0.18789100  1
  O  O3541  1  0.31260400  0.37501625  0.43789100  1
  O  O3542  1  0.31260400  0.37501625  0.68789100  1
  O  O3543  1  0.31260400  0.37501625  0.93789100  1
  O  O3544  1  0.31260400  0.62501625  0.18789100  1
  O  O3545  1  0.31260400  0.62501625  0.43789100  1
  O  O3546  1  0.31260400  0.62501625  0.68789100  1
  O  O3547  1  0.31260400  0.62501625  0.93789100  1
  O  O3548  1  0.31260400  0.87501625  0.18789100  1
  O  O3549  1  0.31260400  0.87501625  0.43789100  1
  O  O3550  1  0.31260400  0.87501625  0.68789100  1
  O  O3551  1  0.31260400  0.87501625  0.93789100  1
  O  O3552  1  0.56260400  0.12501625  0.18789100  1
  O  O3553  1  0.56260400  0.12501625  0.43789100  1
  O  O3554  1  0.56260400  0.12501625  0.68789100  1
  O  O3555  1  0.56260400  0.12501625  0.93789100  1
  O  O3556  1  0.56260400  0.37501625  0.18789100  1
  O  O3557  1  0.56260400  0.37501625  0.43789100  1
  O  O3558  1  0.56260400  0.37501625  0.68789100  1
  O  O3559  1  0.56260400  0.37501625  0.93789100  1
  O  O3560  1  0.56260400  0.62501625  0.18789100  1
  O  O3561  1  0.56260400  0.62501625  0.43789100  1
  O  O3562  1  0.56260400  0.62501625  0.68789100  1
  O  O3563  1  0.56260400  0.62501625  0.93789100  1
  O  O3564  1  0.56260400  0.87501625  0.18789100  1
  O  O3565  1  0.56260400  0.87501625  0.43789100  1
  O  O3566  1  0.56260400  0.87501625  0.68789100  1
  O  O3567  1  0.56260400  0.87501625  0.93789100  1
  O  O3568  1  0.81260400  0.12501625  0.18789100  1
  O  O3569  1  0.81260400  0.12501625  0.43789100  1
  O  O3570  1  0.81260400  0.12501625  0.68789100  1
  O  O3571  1  0.81260400  0.12501625  0.93789100  1
  O  O3572  1  0.81260400  0.37501625  0.18789100  1
  O  O3573  1  0.81260400  0.37501625  0.43789100  1
  O  O3574  1  0.81260400  0.37501625  0.68789100  1
  O  O3575  1  0.81260400  0.37501625  0.93789100  1
  O  O3576  1  0.81260400  0.62501625  0.18789100  1
  O  O3577  1  0.81260400  0.62501625  0.43789100  1
  O  O3578  1  0.81260400  0.62501625  0.68789100  1
  O  O3579  1  0.81260400  0.62501625  0.93789100  1
  O  O3580  1  0.81260400  0.87501625  0.18789100  1
  O  O3581  1  0.81260400  0.87501625  0.43789100  1
  O  O3582  1  0.81260400  0.87501625  0.68789100  1
  O  O3583  1  0.81260400  0.87501625  0.93789100  1
  O  O3584  1  0.18739600  0.12501625  0.18789100  1
  O  O3585  1  0.18739600  0.12501625  0.43789100  1
  O  O3586  1  0.18739600  0.12501625  0.68789100  1
  O  O3587  1  0.18739600  0.12501625  0.93789100  1
  O  O3588  1  0.18739600  0.37501625  0.18789100  1
  O  O3589  1  0.18739600  0.37501625  0.43789100  1
  O  O3590  1  0.18739600  0.37501625  0.68789100  1
  O  O3591  1  0.18739600  0.37501625  0.93789100  1
  O  O3592  1  0.18739600  0.62501625  0.18789100  1
  O  O3593  1  0.18739600  0.62501625  0.43789100  1
  O  O3594  1  0.18739600  0.62501625  0.68789100  1
  O  O3595  1  0.18739600  0.62501625  0.93789100  1
  O  O3596  1  0.18739600  0.87501625  0.18789100  1
  O  O3597  1  0.18739600  0.87501625  0.43789100  1
  O  O3598  1  0.18739600  0.87501625  0.68789100  1
  O  O3599  1  0.18739600  0.87501625  0.93789100  1
  O  O3600  1  0.43739600  0.12501625  0.18789100  1
  O  O3601  1  0.43739600  0.12501625  0.43789100  1
  O  O3602  1  0.43739600  0.12501625  0.68789100  1
  O  O3603  1  0.43739600  0.12501625  0.93789100  1
  O  O3604  1  0.43739600  0.37501625  0.18789100  1
  O  O3605  1  0.43739600  0.37501625  0.43789100  1
  O  O3606  1  0.43739600  0.37501625  0.68789100  1
  O  O3607  1  0.43739600  0.37501625  0.93789100  1
  O  O3608  1  0.43739600  0.62501625  0.18789100  1
  O  O3609  1  0.43739600  0.62501625  0.43789100  1
  O  O3610  1  0.43739600  0.62501625  0.68789100  1
  O  O3611  1  0.43739600  0.62501625  0.93789100  1
  O  O3612  1  0.43739600  0.87501625  0.18789100  1
  O  O3613  1  0.43739600  0.87501625  0.43789100  1
  O  O3614  1  0.43739600  0.87501625  0.68789100  1
  O  O3615  1  0.43739600  0.87501625  0.93789100  1
  O  O3616  1  0.68739600  0.12501625  0.18789100  1
  O  O3617  1  0.68739600  0.12501625  0.43789100  1
  O  O3618  1  0.68739600  0.12501625  0.68789100  1
  O  O3619  1  0.68739600  0.12501625  0.93789100  1
  O  O3620  1  0.68739600  0.37501625  0.18789100  1
  O  O3621  1  0.68739600  0.37501625  0.43789100  1
  O  O3622  1  0.68739600  0.37501625  0.68789100  1
  O  O3623  1  0.68739600  0.37501625  0.93789100  1
  O  O3624  1  0.68739600  0.62501625  0.18789100  1
  O  O3625  1  0.68739600  0.62501625  0.43789100  1
  O  O3626  1  0.68739600  0.62501625  0.68789100  1
  O  O3627  1  0.68739600  0.62501625  0.93789100  1
  O  O3628  1  0.68739600  0.87501625  0.18789100  1
  O  O3629  1  0.68739600  0.87501625  0.43789100  1
  O  O3630  1  0.68739600  0.87501625  0.68789100  1
  O  O3631  1  0.68739600  0.87501625  0.93789100  1
  O  O3632  1  0.93739600  0.12501625  0.18789100  1
  O  O3633  1  0.93739600  0.12501625  0.43789100  1
  O  O3634  1  0.93739600  0.12501625  0.68789100  1
  O  O3635  1  0.93739600  0.12501625  0.93789100  1
  O  O3636  1  0.93739600  0.37501625  0.18789100  1
  O  O3637  1  0.93739600  0.37501625  0.43789100  1
  O  O3638  1  0.93739600  0.37501625  0.68789100  1
  O  O3639  1  0.93739600  0.37501625  0.93789100  1
  O  O3640  1  0.93739600  0.62501625  0.18789100  1
  O  O3641  1  0.93739600  0.62501625  0.43789100  1
  O  O3642  1  0.93739600  0.62501625  0.68789100  1
  O  O3643  1  0.93739600  0.62501625  0.93789100  1
  O  O3644  1  0.93739600  0.87501625  0.18789100  1
  O  O3645  1  0.93739600  0.87501625  0.43789100  1
  O  O3646  1  0.93739600  0.87501625  0.68789100  1
  O  O3647  1  0.93739600  0.87501625  0.93789100  1
  O  O3648  1  0.12500000  0.12686025  0.23068275  1
  O  O3649  1  0.12500000  0.12686025  0.48068275  1
  O  O3650  1  0.12500000  0.12686025  0.73068275  1
  O  O3651  1  0.12500000  0.12686025  0.98068275  1
  O  O3652  1  0.12500000  0.37686025  0.23068275  1
  O  O3653  1  0.12500000  0.37686025  0.48068275  1
  O  O3654  1  0.12500000  0.37686025  0.73068275  1
  O  O3655  1  0.12500000  0.37686025  0.98068275  1
  O  O3656  1  0.12500000  0.62686025  0.23068275  1
  O  O3657  1  0.12500000  0.62686025  0.48068275  1
  O  O3658  1  0.12500000  0.62686025  0.73068275  1
  O  O3659  1  0.12500000  0.62686025  0.98068275  1
  O  O3660  1  0.12500000  0.87686025  0.23068275  1
  O  O3661  1  0.12500000  0.87686025  0.48068275  1
  O  O3662  1  0.12500000  0.87686025  0.73068275  1
  O  O3663  1  0.12500000  0.87686025  0.98068275  1
  O  O3664  1  0.37500000  0.12686025  0.23068275  1
  O  O3665  1  0.37500000  0.12686025  0.48068275  1
  O  O3666  1  0.37500000  0.12686025  0.73068275  1
  O  O3667  1  0.37500000  0.12686025  0.98068275  1
  O  O3668  1  0.37500000  0.37686025  0.23068275  1
  O  O3669  1  0.37500000  0.37686025  0.48068275  1
  O  O3670  1  0.37500000  0.37686025  0.73068275  1
  O  O3671  1  0.37500000  0.37686025  0.98068275  1
  O  O3672  1  0.37500000  0.62686025  0.23068275  1
  O  O3673  1  0.37500000  0.62686025  0.48068275  1
  O  O3674  1  0.37500000  0.62686025  0.73068275  1
  O  O3675  1  0.37500000  0.62686025  0.98068275  1
  O  O3676  1  0.37500000  0.87686025  0.23068275  1
  O  O3677  1  0.37500000  0.87686025  0.48068275  1
  O  O3678  1  0.37500000  0.87686025  0.73068275  1
  O  O3679  1  0.37500000  0.87686025  0.98068275  1
  O  O3680  1  0.62500000  0.12686025  0.23068275  1
  O  O3681  1  0.62500000  0.12686025  0.48068275  1
  O  O3682  1  0.62500000  0.12686025  0.73068275  1
  O  O3683  1  0.62500000  0.12686025  0.98068275  1
  O  O3684  1  0.62500000  0.37686025  0.23068275  1
  O  O3685  1  0.62500000  0.37686025  0.48068275  1
  O  O3686  1  0.62500000  0.37686025  0.73068275  1
  O  O3687  1  0.62500000  0.37686025  0.98068275  1
  O  O3688  1  0.62500000  0.62686025  0.23068275  1
  O  O3689  1  0.62500000  0.62686025  0.48068275  1
  O  O3690  1  0.62500000  0.62686025  0.73068275  1
  O  O3691  1  0.62500000  0.62686025  0.98068275  1
  O  O3692  1  0.62500000  0.87686025  0.23068275  1
  O  O3693  1  0.62500000  0.87686025  0.48068275  1
  O  O3694  1  0.62500000  0.87686025  0.73068275  1
  O  O3695  1  0.62500000  0.87686025  0.98068275  1
  O  O3696  1  0.87500000  0.12686025  0.23068275  1
  O  O3697  1  0.87500000  0.12686025  0.48068275  1
  O  O3698  1  0.87500000  0.12686025  0.73068275  1
  O  O3699  1  0.87500000  0.12686025  0.98068275  1
  O  O3700  1  0.87500000  0.37686025  0.23068275  1
  O  O3701  1  0.87500000  0.37686025  0.48068275  1
  O  O3702  1  0.87500000  0.37686025  0.73068275  1
  O  O3703  1  0.87500000  0.37686025  0.98068275  1
  O  O3704  1  0.87500000  0.62686025  0.23068275  1
  O  O3705  1  0.87500000  0.62686025  0.48068275  1
  O  O3706  1  0.87500000  0.62686025  0.73068275  1
  O  O3707  1  0.87500000  0.62686025  0.98068275  1
  O  O3708  1  0.87500000  0.87686025  0.23068275  1
  O  O3709  1  0.87500000  0.87686025  0.48068275  1
  O  O3710  1  0.87500000  0.87686025  0.73068275  1
  O  O3711  1  0.87500000  0.87686025  0.98068275  1
  O  O3712  1  0.12500000  0.14599100  0.10347750  1
  O  O3713  1  0.12500000  0.14599100  0.35347750  1
  O  O3714  1  0.12500000  0.14599100  0.60347750  1
  O  O3715  1  0.12500000  0.14599100  0.85347750  1
  O  O3716  1  0.12500000  0.39599100  0.10347750  1
  O  O3717  1  0.12500000  0.39599100  0.35347750  1
  O  O3718  1  0.12500000  0.39599100  0.60347750  1
  O  O3719  1  0.12500000  0.39599100  0.85347750  1
  O  O3720  1  0.12500000  0.64599100  0.10347750  1
  O  O3721  1  0.12500000  0.64599100  0.35347750  1
  O  O3722  1  0.12500000  0.64599100  0.60347750  1
  O  O3723  1  0.12500000  0.64599100  0.85347750  1
  O  O3724  1  0.12500000  0.89599100  0.10347750  1
  O  O3725  1  0.12500000  0.89599100  0.35347750  1
  O  O3726  1  0.12500000  0.89599100  0.60347750  1
  O  O3727  1  0.12500000  0.89599100  0.85347750  1
  O  O3728  1  0.37500000  0.14599100  0.10347750  1
  O  O3729  1  0.37500000  0.14599100  0.35347750  1
  O  O3730  1  0.37500000  0.14599100  0.60347750  1
  O  O3731  1  0.37500000  0.14599100  0.85347750  1
  O  O3732  1  0.37500000  0.39599100  0.10347750  1
  O  O3733  1  0.37500000  0.39599100  0.35347750  1
  O  O3734  1  0.37500000  0.39599100  0.60347750  1
  O  O3735  1  0.37500000  0.39599100  0.85347750  1
  O  O3736  1  0.37500000  0.64599100  0.10347750  1
  O  O3737  1  0.37500000  0.64599100  0.35347750  1
  O  O3738  1  0.37500000  0.64599100  0.60347750  1
  O  O3739  1  0.37500000  0.64599100  0.85347750  1
  O  O3740  1  0.37500000  0.89599100  0.10347750  1
  O  O3741  1  0.37500000  0.89599100  0.35347750  1
  O  O3742  1  0.37500000  0.89599100  0.60347750  1
  O  O3743  1  0.37500000  0.89599100  0.85347750  1
  O  O3744  1  0.62500000  0.14599100  0.10347750  1
  O  O3745  1  0.62500000  0.14599100  0.35347750  1
  O  O3746  1  0.62500000  0.14599100  0.60347750  1
  O  O3747  1  0.62500000  0.14599100  0.85347750  1
  O  O3748  1  0.62500000  0.39599100  0.10347750  1
  O  O3749  1  0.62500000  0.39599100  0.35347750  1
  O  O3750  1  0.62500000  0.39599100  0.60347750  1
  O  O3751  1  0.62500000  0.39599100  0.85347750  1
  O  O3752  1  0.62500000  0.64599100  0.10347750  1
  O  O3753  1  0.62500000  0.64599100  0.35347750  1
  O  O3754  1  0.62500000  0.64599100  0.60347750  1
  O  O3755  1  0.62500000  0.64599100  0.85347750  1
  O  O3756  1  0.62500000  0.89599100  0.10347750  1
  O  O3757  1  0.62500000  0.89599100  0.35347750  1
  O  O3758  1  0.62500000  0.89599100  0.60347750  1
  O  O3759  1  0.62500000  0.89599100  0.85347750  1
  O  O3760  1  0.87500000  0.14599100  0.10347750  1
  O  O3761  1  0.87500000  0.14599100  0.35347750  1
  O  O3762  1  0.87500000  0.14599100  0.60347750  1
  O  O3763  1  0.87500000  0.14599100  0.85347750  1
  O  O3764  1  0.87500000  0.39599100  0.10347750  1
  O  O3765  1  0.87500000  0.39599100  0.35347750  1
  O  O3766  1  0.87500000  0.39599100  0.60347750  1
  O  O3767  1  0.87500000  0.39599100  0.85347750  1
  O  O3768  1  0.87500000  0.64599100  0.10347750  1
  O  O3769  1  0.87500000  0.64599100  0.35347750  1
  O  O3770  1  0.87500000  0.64599100  0.60347750  1
  O  O3771  1  0.87500000  0.64599100  0.85347750  1
  O  O3772  1  0.87500000  0.89599100  0.10347750  1
  O  O3773  1  0.87500000  0.89599100  0.35347750  1
  O  O3774  1  0.87500000  0.89599100  0.60347750  1
  O  O3775  1  0.87500000  0.89599100  0.85347750  1
  O  O3776  1  0.19064150  0.15116875  0.01828975  1
  O  O3777  1  0.19064150  0.15116875  0.26828975  1
  O  O3778  1  0.19064150  0.15116875  0.51828975  1
  O  O3779  1  0.19064150  0.15116875  0.76828975  1
  O  O3780  1  0.19064150  0.40116875  0.01828975  1
  O  O3781  1  0.19064150  0.40116875  0.26828975  1
  O  O3782  1  0.19064150  0.40116875  0.51828975  1
  O  O3783  1  0.19064150  0.40116875  0.76828975  1
  O  O3784  1  0.19064150  0.65116875  0.01828975  1
  O  O3785  1  0.19064150  0.65116875  0.26828975  1
  O  O3786  1  0.19064150  0.65116875  0.51828975  1
  O  O3787  1  0.19064150  0.65116875  0.76828975  1
  O  O3788  1  0.19064150  0.90116875  0.01828975  1
  O  O3789  1  0.19064150  0.90116875  0.26828975  1
  O  O3790  1  0.19064150  0.90116875  0.51828975  1
  O  O3791  1  0.19064150  0.90116875  0.76828975  1
  O  O3792  1  0.44064150  0.15116875  0.01828975  1
  O  O3793  1  0.44064150  0.15116875  0.26828975  1
  O  O3794  1  0.44064150  0.15116875  0.51828975  1
  O  O3795  1  0.44064150  0.15116875  0.76828975  1
  O  O3796  1  0.44064150  0.40116875  0.01828975  1
  O  O3797  1  0.44064150  0.40116875  0.26828975  1
  O  O3798  1  0.44064150  0.40116875  0.51828975  1
  O  O3799  1  0.44064150  0.40116875  0.76828975  1
  O  O3800  1  0.44064150  0.65116875  0.01828975  1
  O  O3801  1  0.44064150  0.65116875  0.26828975  1
  O  O3802  1  0.44064150  0.65116875  0.51828975  1
  O  O3803  1  0.44064150  0.65116875  0.76828975  1
  O  O3804  1  0.44064150  0.90116875  0.01828975  1
  O  O3805  1  0.44064150  0.90116875  0.26828975  1
  O  O3806  1  0.44064150  0.90116875  0.51828975  1
  O  O3807  1  0.44064150  0.90116875  0.76828975  1
  O  O3808  1  0.69064150  0.15116875  0.01828975  1
  O  O3809  1  0.69064150  0.15116875  0.26828975  1
  O  O3810  1  0.69064150  0.15116875  0.51828975  1
  O  O3811  1  0.69064150  0.15116875  0.76828975  1
  O  O3812  1  0.69064150  0.40116875  0.01828975  1
  O  O3813  1  0.69064150  0.40116875  0.26828975  1
  O  O3814  1  0.69064150  0.40116875  0.51828975  1
  O  O3815  1  0.69064150  0.40116875  0.76828975  1
  O  O3816  1  0.69064150  0.65116875  0.01828975  1
  O  O3817  1  0.69064150  0.65116875  0.26828975  1
  O  O3818  1  0.69064150  0.65116875  0.51828975  1
  O  O3819  1  0.69064150  0.65116875  0.76828975  1
  O  O3820  1  0.69064150  0.90116875  0.01828975  1
  O  O3821  1  0.69064150  0.90116875  0.26828975  1
  O  O3822  1  0.69064150  0.90116875  0.51828975  1
  O  O3823  1  0.69064150  0.90116875  0.76828975  1
  O  O3824  1  0.94064150  0.15116875  0.01828975  1
  O  O3825  1  0.94064150  0.15116875  0.26828975  1
  O  O3826  1  0.94064150  0.15116875  0.51828975  1
  O  O3827  1  0.94064150  0.15116875  0.76828975  1
  O  O3828  1  0.94064150  0.40116875  0.01828975  1
  O  O3829  1  0.94064150  0.40116875  0.26828975  1
  O  O3830  1  0.94064150  0.40116875  0.51828975  1
  O  O3831  1  0.94064150  0.40116875  0.76828975  1
  O  O3832  1  0.94064150  0.65116875  0.01828975  1
  O  O3833  1  0.94064150  0.65116875  0.26828975  1
  O  O3834  1  0.94064150  0.65116875  0.51828975  1
  O  O3835  1  0.94064150  0.65116875  0.76828975  1
  O  O3836  1  0.94064150  0.90116875  0.01828975  1
  O  O3837  1  0.94064150  0.90116875  0.26828975  1
  O  O3838  1  0.94064150  0.90116875  0.51828975  1
  O  O3839  1  0.94064150  0.90116875  0.76828975  1
  O  O3840  1  0.05935850  0.15116875  0.01828975  1
  O  O3841  1  0.05935850  0.15116875  0.26828975  1
  O  O3842  1  0.05935850  0.15116875  0.51828975  1
  O  O3843  1  0.05935850  0.15116875  0.76828975  1
  O  O3844  1  0.05935850  0.40116875  0.01828975  1
  O  O3845  1  0.05935850  0.40116875  0.26828975  1
  O  O3846  1  0.05935850  0.40116875  0.51828975  1
  O  O3847  1  0.05935850  0.40116875  0.76828975  1
  O  O3848  1  0.05935850  0.65116875  0.01828975  1
  O  O3849  1  0.05935850  0.65116875  0.26828975  1
  O  O3850  1  0.05935850  0.65116875  0.51828975  1
  O  O3851  1  0.05935850  0.65116875  0.76828975  1
  O  O3852  1  0.05935850  0.90116875  0.01828975  1
  O  O3853  1  0.05935850  0.90116875  0.26828975  1
  O  O3854  1  0.05935850  0.90116875  0.51828975  1
  O  O3855  1  0.05935850  0.90116875  0.76828975  1
  O  O3856  1  0.30935850  0.15116875  0.01828975  1
  O  O3857  1  0.30935850  0.15116875  0.26828975  1
  O  O3858  1  0.30935850  0.15116875  0.51828975  1
  O  O3859  1  0.30935850  0.15116875  0.76828975  1
  O  O3860  1  0.30935850  0.40116875  0.01828975  1
  O  O3861  1  0.30935850  0.40116875  0.26828975  1
  O  O3862  1  0.30935850  0.40116875  0.51828975  1
  O  O3863  1  0.30935850  0.40116875  0.76828975  1
  O  O3864  1  0.30935850  0.65116875  0.01828975  1
  O  O3865  1  0.30935850  0.65116875  0.26828975  1
  O  O3866  1  0.30935850  0.65116875  0.51828975  1
  O  O3867  1  0.30935850  0.65116875  0.76828975  1
  O  O3868  1  0.30935850  0.90116875  0.01828975  1
  O  O3869  1  0.30935850  0.90116875  0.26828975  1
  O  O3870  1  0.30935850  0.90116875  0.51828975  1
  O  O3871  1  0.30935850  0.90116875  0.76828975  1
  O  O3872  1  0.55935850  0.15116875  0.01828975  1
  O  O3873  1  0.55935850  0.15116875  0.26828975  1
  O  O3874  1  0.55935850  0.15116875  0.51828975  1
  O  O3875  1  0.55935850  0.15116875  0.76828975  1
  O  O3876  1  0.55935850  0.40116875  0.01828975  1
  O  O3877  1  0.55935850  0.40116875  0.26828975  1
  O  O3878  1  0.55935850  0.40116875  0.51828975  1
  O  O3879  1  0.55935850  0.40116875  0.76828975  1
  O  O3880  1  0.55935850  0.65116875  0.01828975  1
  O  O3881  1  0.55935850  0.65116875  0.26828975  1
  O  O3882  1  0.55935850  0.65116875  0.51828975  1
  O  O3883  1  0.55935850  0.65116875  0.76828975  1
  O  O3884  1  0.55935850  0.90116875  0.01828975  1
  O  O3885  1  0.55935850  0.90116875  0.26828975  1
  O  O3886  1  0.55935850  0.90116875  0.51828975  1
  O  O3887  1  0.55935850  0.90116875  0.76828975  1
  O  O3888  1  0.80935850  0.15116875  0.01828975  1
  O  O3889  1  0.80935850  0.15116875  0.26828975  1
  O  O3890  1  0.80935850  0.15116875  0.51828975  1
  O  O3891  1  0.80935850  0.15116875  0.76828975  1
  O  O3892  1  0.80935850  0.40116875  0.01828975  1
  O  O3893  1  0.80935850  0.40116875  0.26828975  1
  O  O3894  1  0.80935850  0.40116875  0.51828975  1
  O  O3895  1  0.80935850  0.40116875  0.76828975  1
  O  O3896  1  0.80935850  0.65116875  0.01828975  1
  O  O3897  1  0.80935850  0.65116875  0.26828975  1
  O  O3898  1  0.80935850  0.65116875  0.51828975  1
  O  O3899  1  0.80935850  0.65116875  0.76828975  1
  O  O3900  1  0.80935850  0.90116875  0.01828975  1
  O  O3901  1  0.80935850  0.90116875  0.26828975  1
  O  O3902  1  0.80935850  0.90116875  0.51828975  1
  O  O3903  1  0.80935850  0.90116875  0.76828975  1
  O  O3904  1  0.06375325  0.16501650  0.15610125  1
  O  O3905  1  0.06375325  0.16501650  0.40610125  1
  O  O3906  1  0.06375325  0.16501650  0.65610125  1
  O  O3907  1  0.06375325  0.16501650  0.90610125  1
  O  O3908  1  0.06375325  0.41501650  0.15610125  1
  O  O3909  1  0.06375325  0.41501650  0.40610125  1
  O  O3910  1  0.06375325  0.41501650  0.65610125  1
  O  O3911  1  0.06375325  0.41501650  0.90610125  1
  O  O3912  1  0.06375325  0.66501650  0.15610125  1
  O  O3913  1  0.06375325  0.66501650  0.40610125  1
  O  O3914  1  0.06375325  0.66501650  0.65610125  1
  O  O3915  1  0.06375325  0.66501650  0.90610125  1
  O  O3916  1  0.06375325  0.91501650  0.15610125  1
  O  O3917  1  0.06375325  0.91501650  0.40610125  1
  O  O3918  1  0.06375325  0.91501650  0.65610125  1
  O  O3919  1  0.06375325  0.91501650  0.90610125  1
  O  O3920  1  0.31375325  0.16501650  0.15610125  1
  O  O3921  1  0.31375325  0.16501650  0.40610125  1
  O  O3922  1  0.31375325  0.16501650  0.65610125  1
  O  O3923  1  0.31375325  0.16501650  0.90610125  1
  O  O3924  1  0.31375325  0.41501650  0.15610125  1
  O  O3925  1  0.31375325  0.41501650  0.40610125  1
  O  O3926  1  0.31375325  0.41501650  0.65610125  1
  O  O3927  1  0.31375325  0.41501650  0.90610125  1
  O  O3928  1  0.31375325  0.66501650  0.15610125  1
  O  O3929  1  0.31375325  0.66501650  0.40610125  1
  O  O3930  1  0.31375325  0.66501650  0.65610125  1
  O  O3931  1  0.31375325  0.66501650  0.90610125  1
  O  O3932  1  0.31375325  0.91501650  0.15610125  1
  O  O3933  1  0.31375325  0.91501650  0.40610125  1
  O  O3934  1  0.31375325  0.91501650  0.65610125  1
  O  O3935  1  0.31375325  0.91501650  0.90610125  1
  O  O3936  1  0.56375325  0.16501650  0.15610125  1
  O  O3937  1  0.56375325  0.16501650  0.40610125  1
  O  O3938  1  0.56375325  0.16501650  0.65610125  1
  O  O3939  1  0.56375325  0.16501650  0.90610125  1
  O  O3940  1  0.56375325  0.41501650  0.15610125  1
  O  O3941  1  0.56375325  0.41501650  0.40610125  1
  O  O3942  1  0.56375325  0.41501650  0.65610125  1
  O  O3943  1  0.56375325  0.41501650  0.90610125  1
  O  O3944  1  0.56375325  0.66501650  0.15610125  1
  O  O3945  1  0.56375325  0.66501650  0.40610125  1
  O  O3946  1  0.56375325  0.66501650  0.65610125  1
  O  O3947  1  0.56375325  0.66501650  0.90610125  1
  O  O3948  1  0.56375325  0.91501650  0.15610125  1
  O  O3949  1  0.56375325  0.91501650  0.40610125  1
  O  O3950  1  0.56375325  0.91501650  0.65610125  1
  O  O3951  1  0.56375325  0.91501650  0.90610125  1
  O  O3952  1  0.81375325  0.16501650  0.15610125  1
  O  O3953  1  0.81375325  0.16501650  0.40610125  1
  O  O3954  1  0.81375325  0.16501650  0.65610125  1
  O  O3955  1  0.81375325  0.16501650  0.90610125  1
  O  O3956  1  0.81375325  0.41501650  0.15610125  1
  O  O3957  1  0.81375325  0.41501650  0.40610125  1
  O  O3958  1  0.81375325  0.41501650  0.65610125  1
  O  O3959  1  0.81375325  0.41501650  0.90610125  1
  O  O3960  1  0.81375325  0.66501650  0.15610125  1
  O  O3961  1  0.81375325  0.66501650  0.40610125  1
  O  O3962  1  0.81375325  0.66501650  0.65610125  1
  O  O3963  1  0.81375325  0.66501650  0.90610125  1
  O  O3964  1  0.81375325  0.91501650  0.15610125  1
  O  O3965  1  0.81375325  0.91501650  0.40610125  1
  O  O3966  1  0.81375325  0.91501650  0.65610125  1
  O  O3967  1  0.81375325  0.91501650  0.90610125  1
  O  O3968  1  0.18624675  0.16501650  0.15610125  1
  O  O3969  1  0.18624675  0.16501650  0.40610125  1
  O  O3970  1  0.18624675  0.16501650  0.65610125  1
  O  O3971  1  0.18624675  0.16501650  0.90610125  1
  O  O3972  1  0.18624675  0.41501650  0.15610125  1
  O  O3973  1  0.18624675  0.41501650  0.40610125  1
  O  O3974  1  0.18624675  0.41501650  0.65610125  1
  O  O3975  1  0.18624675  0.41501650  0.90610125  1
  O  O3976  1  0.18624675  0.66501650  0.15610125  1
  O  O3977  1  0.18624675  0.66501650  0.40610125  1
  O  O3978  1  0.18624675  0.66501650  0.65610125  1
  O  O3979  1  0.18624675  0.66501650  0.90610125  1
  O  O3980  1  0.18624675  0.91501650  0.15610125  1
  O  O3981  1  0.18624675  0.91501650  0.40610125  1
  O  O3982  1  0.18624675  0.91501650  0.65610125  1
  O  O3983  1  0.18624675  0.91501650  0.90610125  1
  O  O3984  1  0.43624675  0.16501650  0.15610125  1
  O  O3985  1  0.43624675  0.16501650  0.40610125  1
  O  O3986  1  0.43624675  0.16501650  0.65610125  1
  O  O3987  1  0.43624675  0.16501650  0.90610125  1
  O  O3988  1  0.43624675  0.41501650  0.15610125  1
  O  O3989  1  0.43624675  0.41501650  0.40610125  1
  O  O3990  1  0.43624675  0.41501650  0.65610125  1
  O  O3991  1  0.43624675  0.41501650  0.90610125  1
  O  O3992  1  0.43624675  0.66501650  0.15610125  1
  O  O3993  1  0.43624675  0.66501650  0.40610125  1
  O  O3994  1  0.43624675  0.66501650  0.65610125  1
  O  O3995  1  0.43624675  0.66501650  0.90610125  1
  O  O3996  1  0.43624675  0.91501650  0.15610125  1
  O  O3997  1  0.43624675  0.91501650  0.40610125  1
  O  O3998  1  0.43624675  0.91501650  0.65610125  1
  O  O3999  1  0.43624675  0.91501650  0.90610125  1
  O  O4000  1  0.68624675  0.16501650  0.15610125  1
  O  O4001  1  0.68624675  0.16501650  0.40610125  1
  O  O4002  1  0.68624675  0.16501650  0.65610125  1
  O  O4003  1  0.68624675  0.16501650  0.90610125  1
  O  O4004  1  0.68624675  0.41501650  0.15610125  1
  O  O4005  1  0.68624675  0.41501650  0.40610125  1
  O  O4006  1  0.68624675  0.41501650  0.65610125  1
  O  O4007  1  0.68624675  0.41501650  0.90610125  1
  O  O4008  1  0.68624675  0.66501650  0.15610125  1
  O  O4009  1  0.68624675  0.66501650  0.40610125  1
  O  O4010  1  0.68624675  0.66501650  0.65610125  1
  O  O4011  1  0.68624675  0.66501650  0.90610125  1
  O  O4012  1  0.68624675  0.91501650  0.15610125  1
  O  O4013  1  0.68624675  0.91501650  0.40610125  1
  O  O4014  1  0.68624675  0.91501650  0.65610125  1
  O  O4015  1  0.68624675  0.91501650  0.90610125  1
  O  O4016  1  0.93624675  0.16501650  0.15610125  1
  O  O4017  1  0.93624675  0.16501650  0.40610125  1
  O  O4018  1  0.93624675  0.16501650  0.65610125  1
  O  O4019  1  0.93624675  0.16501650  0.90610125  1
  O  O4020  1  0.93624675  0.41501650  0.15610125  1
  O  O4021  1  0.93624675  0.41501650  0.40610125  1
  O  O4022  1  0.93624675  0.41501650  0.65610125  1
  O  O4023  1  0.93624675  0.41501650  0.90610125  1
  O  O4024  1  0.93624675  0.66501650  0.15610125  1
  O  O4025  1  0.93624675  0.66501650  0.40610125  1
  O  O4026  1  0.93624675  0.66501650  0.65610125  1
  O  O4027  1  0.93624675  0.66501650  0.90610125  1
  O  O4028  1  0.93624675  0.91501650  0.15610125  1
  O  O4029  1  0.93624675  0.91501650  0.40610125  1
  O  O4030  1  0.93624675  0.91501650  0.65610125  1
  O  O4031  1  0.93624675  0.91501650  0.90610125  1
  O  O4032  1  0.00000000  0.16643125  0.20122250  1
  O  O4033  1  0.00000000  0.16643125  0.45122250  1
  O  O4034  1  0.00000000  0.16643125  0.70122250  1
  O  O4035  1  0.00000000  0.16643125  0.95122250  1
  O  O4036  1  0.00000000  0.41643125  0.20122250  1
  O  O4037  1  0.00000000  0.41643125  0.45122250  1
  O  O4038  1  0.00000000  0.41643125  0.70122250  1
  O  O4039  1  0.00000000  0.41643125  0.95122250  1
  O  O4040  1  0.00000000  0.66643125  0.20122250  1
  O  O4041  1  0.00000000  0.66643125  0.45122250  1
  O  O4042  1  0.00000000  0.66643125  0.70122250  1
  O  O4043  1  0.00000000  0.66643125  0.95122250  1
  O  O4044  1  0.00000000  0.91643125  0.20122250  1
  O  O4045  1  0.00000000  0.91643125  0.45122250  1
  O  O4046  1  0.00000000  0.91643125  0.70122250  1
  O  O4047  1  0.00000000  0.91643125  0.95122250  1
  O  O4048  1  0.25000000  0.16643125  0.20122250  1
  O  O4049  1  0.25000000  0.16643125  0.45122250  1
  O  O4050  1  0.25000000  0.16643125  0.70122250  1
  O  O4051  1  0.25000000  0.16643125  0.95122250  1
  O  O4052  1  0.25000000  0.41643125  0.20122250  1
  O  O4053  1  0.25000000  0.41643125  0.45122250  1
  O  O4054  1  0.25000000  0.41643125  0.70122250  1
  O  O4055  1  0.25000000  0.41643125  0.95122250  1
  O  O4056  1  0.25000000  0.66643125  0.20122250  1
  O  O4057  1  0.25000000  0.66643125  0.45122250  1
  O  O4058  1  0.25000000  0.66643125  0.70122250  1
  O  O4059  1  0.25000000  0.66643125  0.95122250  1
  O  O4060  1  0.25000000  0.91643125  0.20122250  1
  O  O4061  1  0.25000000  0.91643125  0.45122250  1
  O  O4062  1  0.25000000  0.91643125  0.70122250  1
  O  O4063  1  0.25000000  0.91643125  0.95122250  1
  O  O4064  1  0.50000000  0.16643125  0.20122250  1
  O  O4065  1  0.50000000  0.16643125  0.45122250  1
  O  O4066  1  0.50000000  0.16643125  0.70122250  1
  O  O4067  1  0.50000000  0.16643125  0.95122250  1
  O  O4068  1  0.50000000  0.41643125  0.20122250  1
  O  O4069  1  0.50000000  0.41643125  0.45122250  1
  O  O4070  1  0.50000000  0.41643125  0.70122250  1
  O  O4071  1  0.50000000  0.41643125  0.95122250  1
  O  O4072  1  0.50000000  0.66643125  0.20122250  1
  O  O4073  1  0.50000000  0.66643125  0.45122250  1
  O  O4074  1  0.50000000  0.66643125  0.70122250  1
  O  O4075  1  0.50000000  0.66643125  0.95122250  1
  O  O4076  1  0.50000000  0.91643125  0.20122250  1
  O  O4077  1  0.50000000  0.91643125  0.45122250  1
  O  O4078  1  0.50000000  0.91643125  0.70122250  1
  O  O4079  1  0.50000000  0.91643125  0.95122250  1
  O  O4080  1  0.75000000  0.16643125  0.20122250  1
  O  O4081  1  0.75000000  0.16643125  0.45122250  1
  O  O4082  1  0.75000000  0.16643125  0.70122250  1
  O  O4083  1  0.75000000  0.16643125  0.95122250  1
  O  O4084  1  0.75000000  0.41643125  0.20122250  1
  O  O4085  1  0.75000000  0.41643125  0.45122250  1
  O  O4086  1  0.75000000  0.41643125  0.70122250  1
  O  O4087  1  0.75000000  0.41643125  0.95122250  1
  O  O4088  1  0.75000000  0.66643125  0.20122250  1
  O  O4089  1  0.75000000  0.66643125  0.45122250  1
  O  O4090  1  0.75000000  0.66643125  0.70122250  1
  O  O4091  1  0.75000000  0.66643125  0.95122250  1
  O  O4092  1  0.75000000  0.91643125  0.20122250  1
  O  O4093  1  0.75000000  0.91643125  0.45122250  1
  O  O4094  1  0.75000000  0.91643125  0.70122250  1
  O  O4095  1  0.75000000  0.91643125  0.95122250  1
  O  O4096  1  0.12500000  0.18491400  0.23537250  1
  O  O4097  1  0.12500000  0.18491400  0.48537250  1
  O  O4098  1  0.12500000  0.18491400  0.73537250  1
  O  O4099  1  0.12500000  0.18491400  0.98537250  1
  O  O4100  1  0.12500000  0.43491400  0.23537250  1
  O  O4101  1  0.12500000  0.43491400  0.48537250  1
  O  O4102  1  0.12500000  0.43491400  0.73537250  1
  O  O4103  1  0.12500000  0.43491400  0.98537250  1
  O  O4104  1  0.12500000  0.68491400  0.23537250  1
  O  O4105  1  0.12500000  0.68491400  0.48537250  1
  O  O4106  1  0.12500000  0.68491400  0.73537250  1
  O  O4107  1  0.12500000  0.68491400  0.98537250  1
  O  O4108  1  0.12500000  0.93491400  0.23537250  1
  O  O4109  1  0.12500000  0.93491400  0.48537250  1
  O  O4110  1  0.12500000  0.93491400  0.73537250  1
  O  O4111  1  0.12500000  0.93491400  0.98537250  1
  O  O4112  1  0.37500000  0.18491400  0.23537250  1
  O  O4113  1  0.37500000  0.18491400  0.48537250  1
  O  O4114  1  0.37500000  0.18491400  0.73537250  1
  O  O4115  1  0.37500000  0.18491400  0.98537250  1
  O  O4116  1  0.37500000  0.43491400  0.23537250  1
  O  O4117  1  0.37500000  0.43491400  0.48537250  1
  O  O4118  1  0.37500000  0.43491400  0.73537250  1
  O  O4119  1  0.37500000  0.43491400  0.98537250  1
  O  O4120  1  0.37500000  0.68491400  0.23537250  1
  O  O4121  1  0.37500000  0.68491400  0.48537250  1
  O  O4122  1  0.37500000  0.68491400  0.73537250  1
  O  O4123  1  0.37500000  0.68491400  0.98537250  1
  O  O4124  1  0.37500000  0.93491400  0.23537250  1
  O  O4125  1  0.37500000  0.93491400  0.48537250  1
  O  O4126  1  0.37500000  0.93491400  0.73537250  1
  O  O4127  1  0.37500000  0.93491400  0.98537250  1
  O  O4128  1  0.62500000  0.18491400  0.23537250  1
  O  O4129  1  0.62500000  0.18491400  0.48537250  1
  O  O4130  1  0.62500000  0.18491400  0.73537250  1
  O  O4131  1  0.62500000  0.18491400  0.98537250  1
  O  O4132  1  0.62500000  0.43491400  0.23537250  1
  O  O4133  1  0.62500000  0.43491400  0.48537250  1
  O  O4134  1  0.62500000  0.43491400  0.73537250  1
  O  O4135  1  0.62500000  0.43491400  0.98537250  1
  O  O4136  1  0.62500000  0.68491400  0.23537250  1
  O  O4137  1  0.62500000  0.68491400  0.48537250  1
  O  O4138  1  0.62500000  0.68491400  0.73537250  1
  O  O4139  1  0.62500000  0.68491400  0.98537250  1
  O  O4140  1  0.62500000  0.93491400  0.23537250  1
  O  O4141  1  0.62500000  0.93491400  0.48537250  1
  O  O4142  1  0.62500000  0.93491400  0.73537250  1
  O  O4143  1  0.62500000  0.93491400  0.98537250  1
  O  O4144  1  0.87500000  0.18491400  0.23537250  1
  O  O4145  1  0.87500000  0.18491400  0.48537250  1
  O  O4146  1  0.87500000  0.18491400  0.73537250  1
  O  O4147  1  0.87500000  0.18491400  0.98537250  1
  O  O4148  1  0.87500000  0.43491400  0.23537250  1
  O  O4149  1  0.87500000  0.43491400  0.48537250  1
  O  O4150  1  0.87500000  0.43491400  0.73537250  1
  O  O4151  1  0.87500000  0.43491400  0.98537250  1
  O  O4152  1  0.87500000  0.68491400  0.23537250  1
  O  O4153  1  0.87500000  0.68491400  0.48537250  1
  O  O4154  1  0.87500000  0.68491400  0.73537250  1
  O  O4155  1  0.87500000  0.68491400  0.98537250  1
  O  O4156  1  0.87500000  0.93491400  0.23537250  1
  O  O4157  1  0.87500000  0.93491400  0.48537250  1
  O  O4158  1  0.87500000  0.93491400  0.73537250  1
  O  O4159  1  0.87500000  0.93491400  0.98537250  1
  O  O4160  1  0.00000000  0.18834575  0.10828025  1
  O  O4161  1  0.00000000  0.18834575  0.35828025  1
  O  O4162  1  0.00000000  0.18834575  0.60828025  1
  O  O4163  1  0.00000000  0.18834575  0.85828025  1
  O  O4164  1  0.00000000  0.43834575  0.10828025  1
  O  O4165  1  0.00000000  0.43834575  0.35828025  1
  O  O4166  1  0.00000000  0.43834575  0.60828025  1
  O  O4167  1  0.00000000  0.43834575  0.85828025  1
  O  O4168  1  0.00000000  0.68834575  0.10828025  1
  O  O4169  1  0.00000000  0.68834575  0.35828025  1
  O  O4170  1  0.00000000  0.68834575  0.60828025  1
  O  O4171  1  0.00000000  0.68834575  0.85828025  1
  O  O4172  1  0.00000000  0.93834575  0.10828025  1
  O  O4173  1  0.00000000  0.93834575  0.35828025  1
  O  O4174  1  0.00000000  0.93834575  0.60828025  1
  O  O4175  1  0.00000000  0.93834575  0.85828025  1
  O  O4176  1  0.25000000  0.18834575  0.10828025  1
  O  O4177  1  0.25000000  0.18834575  0.35828025  1
  O  O4178  1  0.25000000  0.18834575  0.60828025  1
  O  O4179  1  0.25000000  0.18834575  0.85828025  1
  O  O4180  1  0.25000000  0.43834575  0.10828025  1
  O  O4181  1  0.25000000  0.43834575  0.35828025  1
  O  O4182  1  0.25000000  0.43834575  0.60828025  1
  O  O4183  1  0.25000000  0.43834575  0.85828025  1
  O  O4184  1  0.25000000  0.68834575  0.10828025  1
  O  O4185  1  0.25000000  0.68834575  0.35828025  1
  O  O4186  1  0.25000000  0.68834575  0.60828025  1
  O  O4187  1  0.25000000  0.68834575  0.85828025  1
  O  O4188  1  0.25000000  0.93834575  0.10828025  1
  O  O4189  1  0.25000000  0.93834575  0.35828025  1
  O  O4190  1  0.25000000  0.93834575  0.60828025  1
  O  O4191  1  0.25000000  0.93834575  0.85828025  1
  O  O4192  1  0.50000000  0.18834575  0.10828025  1
  O  O4193  1  0.50000000  0.18834575  0.35828025  1
  O  O4194  1  0.50000000  0.18834575  0.60828025  1
  O  O4195  1  0.50000000  0.18834575  0.85828025  1
  O  O4196  1  0.50000000  0.43834575  0.10828025  1
  O  O4197  1  0.50000000  0.43834575  0.35828025  1
  O  O4198  1  0.50000000  0.43834575  0.60828025  1
  O  O4199  1  0.50000000  0.43834575  0.85828025  1
  O  O4200  1  0.50000000  0.68834575  0.10828025  1
  O  O4201  1  0.50000000  0.68834575  0.35828025  1
  O  O4202  1  0.50000000  0.68834575  0.60828025  1
  O  O4203  1  0.50000000  0.68834575  0.85828025  1
  O  O4204  1  0.50000000  0.93834575  0.10828025  1
  O  O4205  1  0.50000000  0.93834575  0.35828025  1
  O  O4206  1  0.50000000  0.93834575  0.60828025  1
  O  O4207  1  0.50000000  0.93834575  0.85828025  1
  O  O4208  1  0.75000000  0.18834575  0.10828025  1
  O  O4209  1  0.75000000  0.18834575  0.35828025  1
  O  O4210  1  0.75000000  0.18834575  0.60828025  1
  O  O4211  1  0.75000000  0.18834575  0.85828025  1
  O  O4212  1  0.75000000  0.43834575  0.10828025  1
  O  O4213  1  0.75000000  0.43834575  0.35828025  1
  O  O4214  1  0.75000000  0.43834575  0.60828025  1
  O  O4215  1  0.75000000  0.43834575  0.85828025  1
  O  O4216  1  0.75000000  0.68834575  0.10828025  1
  O  O4217  1  0.75000000  0.68834575  0.35828025  1
  O  O4218  1  0.75000000  0.68834575  0.60828025  1
  O  O4219  1  0.75000000  0.68834575  0.85828025  1
  O  O4220  1  0.75000000  0.93834575  0.10828025  1
  O  O4221  1  0.75000000  0.93834575  0.35828025  1
  O  O4222  1  0.75000000  0.93834575  0.60828025  1
  O  O4223  1  0.75000000  0.93834575  0.85828025  1
  O  O4224  1  0.12500000  0.21120200  0.18598725  1
  O  O4225  1  0.12500000  0.21120200  0.43598725  1
  O  O4226  1  0.12500000  0.21120200  0.68598725  1
  O  O4227  1  0.12500000  0.21120200  0.93598725  1
  O  O4228  1  0.12500000  0.46120200  0.18598725  1
  O  O4229  1  0.12500000  0.46120200  0.43598725  1
  O  O4230  1  0.12500000  0.46120200  0.68598725  1
  O  O4231  1  0.12500000  0.46120200  0.93598725  1
  O  O4232  1  0.12500000  0.71120200  0.18598725  1
  O  O4233  1  0.12500000  0.71120200  0.43598725  1
  O  O4234  1  0.12500000  0.71120200  0.68598725  1
  O  O4235  1  0.12500000  0.71120200  0.93598725  1
  O  O4236  1  0.12500000  0.96120200  0.18598725  1
  O  O4237  1  0.12500000  0.96120200  0.43598725  1
  O  O4238  1  0.12500000  0.96120200  0.68598725  1
  O  O4239  1  0.12500000  0.96120200  0.93598725  1
  O  O4240  1  0.37500000  0.21120200  0.18598725  1
  O  O4241  1  0.37500000  0.21120200  0.43598725  1
  O  O4242  1  0.37500000  0.21120200  0.68598725  1
  O  O4243  1  0.37500000  0.21120200  0.93598725  1
  O  O4244  1  0.37500000  0.46120200  0.18598725  1
  O  O4245  1  0.37500000  0.46120200  0.43598725  1
  O  O4246  1  0.37500000  0.46120200  0.68598725  1
  O  O4247  1  0.37500000  0.46120200  0.93598725  1
  O  O4248  1  0.37500000  0.71120200  0.18598725  1
  O  O4249  1  0.37500000  0.71120200  0.43598725  1
  O  O4250  1  0.37500000  0.71120200  0.68598725  1
  O  O4251  1  0.37500000  0.71120200  0.93598725  1
  O  O4252  1  0.37500000  0.96120200  0.18598725  1
  O  O4253  1  0.37500000  0.96120200  0.43598725  1
  O  O4254  1  0.37500000  0.96120200  0.68598725  1
  O  O4255  1  0.37500000  0.96120200  0.93598725  1
  O  O4256  1  0.62500000  0.21120200  0.18598725  1
  O  O4257  1  0.62500000  0.21120200  0.43598725  1
  O  O4258  1  0.62500000  0.21120200  0.68598725  1
  O  O4259  1  0.62500000  0.21120200  0.93598725  1
  O  O4260  1  0.62500000  0.46120200  0.18598725  1
  O  O4261  1  0.62500000  0.46120200  0.43598725  1
  O  O4262  1  0.62500000  0.46120200  0.68598725  1
  O  O4263  1  0.62500000  0.46120200  0.93598725  1
  O  O4264  1  0.62500000  0.71120200  0.18598725  1
  O  O4265  1  0.62500000  0.71120200  0.43598725  1
  O  O4266  1  0.62500000  0.71120200  0.68598725  1
  O  O4267  1  0.62500000  0.71120200  0.93598725  1
  O  O4268  1  0.62500000  0.96120200  0.18598725  1
  O  O4269  1  0.62500000  0.96120200  0.43598725  1
  O  O4270  1  0.62500000  0.96120200  0.68598725  1
  O  O4271  1  0.62500000  0.96120200  0.93598725  1
  O  O4272  1  0.87500000  0.21120200  0.18598725  1
  O  O4273  1  0.87500000  0.21120200  0.43598725  1
  O  O4274  1  0.87500000  0.21120200  0.68598725  1
  O  O4275  1  0.87500000  0.21120200  0.93598725  1
  O  O4276  1  0.87500000  0.46120200  0.18598725  1
  O  O4277  1  0.87500000  0.46120200  0.43598725  1
  O  O4278  1  0.87500000  0.46120200  0.68598725  1
  O  O4279  1  0.87500000  0.46120200  0.93598725  1
  O  O4280  1  0.87500000  0.71120200  0.18598725  1
  O  O4281  1  0.87500000  0.71120200  0.43598725  1
  O  O4282  1  0.87500000  0.71120200  0.68598725  1
  O  O4283  1  0.87500000  0.71120200  0.93598725  1
  O  O4284  1  0.87500000  0.96120200  0.18598725  1
  O  O4285  1  0.87500000  0.96120200  0.43598725  1
  O  O4286  1  0.87500000  0.96120200  0.68598725  1
  O  O4287  1  0.87500000  0.96120200  0.93598725  1
  O  O4288  1  0.12500000  0.20841825  0.07644100  1
  O  O4289  1  0.12500000  0.20841825  0.32644100  1
  O  O4290  1  0.12500000  0.20841825  0.57644100  1
  O  O4291  1  0.12500000  0.20841825  0.82644100  1
  O  O4292  1  0.12500000  0.45841825  0.07644100  1
  O  O4293  1  0.12500000  0.45841825  0.32644100  1
  O  O4294  1  0.12500000  0.45841825  0.57644100  1
  O  O4295  1  0.12500000  0.45841825  0.82644100  1
  O  O4296  1  0.12500000  0.70841825  0.07644100  1
  O  O4297  1  0.12500000  0.70841825  0.32644100  1
  O  O4298  1  0.12500000  0.70841825  0.57644100  1
  O  O4299  1  0.12500000  0.70841825  0.82644100  1
  O  O4300  1  0.12500000  0.95841825  0.07644100  1
  O  O4301  1  0.12500000  0.95841825  0.32644100  1
  O  O4302  1  0.12500000  0.95841825  0.57644100  1
  O  O4303  1  0.12500000  0.95841825  0.82644100  1
  O  O4304  1  0.37500000  0.20841825  0.07644100  1
  O  O4305  1  0.37500000  0.20841825  0.32644100  1
  O  O4306  1  0.37500000  0.20841825  0.57644100  1
  O  O4307  1  0.37500000  0.20841825  0.82644100  1
  O  O4308  1  0.37500000  0.45841825  0.07644100  1
  O  O4309  1  0.37500000  0.45841825  0.32644100  1
  O  O4310  1  0.37500000  0.45841825  0.57644100  1
  O  O4311  1  0.37500000  0.45841825  0.82644100  1
  O  O4312  1  0.37500000  0.70841825  0.07644100  1
  O  O4313  1  0.37500000  0.70841825  0.32644100  1
  O  O4314  1  0.37500000  0.70841825  0.57644100  1
  O  O4315  1  0.37500000  0.70841825  0.82644100  1
  O  O4316  1  0.37500000  0.95841825  0.07644100  1
  O  O4317  1  0.37500000  0.95841825  0.32644100  1
  O  O4318  1  0.37500000  0.95841825  0.57644100  1
  O  O4319  1  0.37500000  0.95841825  0.82644100  1
  O  O4320  1  0.62500000  0.20841825  0.07644100  1
  O  O4321  1  0.62500000  0.20841825  0.32644100  1
  O  O4322  1  0.62500000  0.20841825  0.57644100  1
  O  O4323  1  0.62500000  0.20841825  0.82644100  1
  O  O4324  1  0.62500000  0.45841825  0.07644100  1
  O  O4325  1  0.62500000  0.45841825  0.32644100  1
  O  O4326  1  0.62500000  0.45841825  0.57644100  1
  O  O4327  1  0.62500000  0.45841825  0.82644100  1
  O  O4328  1  0.62500000  0.70841825  0.07644100  1
  O  O4329  1  0.62500000  0.70841825  0.32644100  1
  O  O4330  1  0.62500000  0.70841825  0.57644100  1
  O  O4331  1  0.62500000  0.70841825  0.82644100  1
  O  O4332  1  0.62500000  0.95841825  0.07644100  1
  O  O4333  1  0.62500000  0.95841825  0.32644100  1
  O  O4334  1  0.62500000  0.95841825  0.57644100  1
  O  O4335  1  0.62500000  0.95841825  0.82644100  1
  O  O4336  1  0.87500000  0.20841825  0.07644100  1
  O  O4337  1  0.87500000  0.20841825  0.32644100  1
  O  O4338  1  0.87500000  0.20841825  0.57644100  1
  O  O4339  1  0.87500000  0.20841825  0.82644100  1
  O  O4340  1  0.87500000  0.45841825  0.07644100  1
  O  O4341  1  0.87500000  0.45841825  0.32644100  1
  O  O4342  1  0.87500000  0.45841825  0.57644100  1
  O  O4343  1  0.87500000  0.45841825  0.82644100  1
  O  O4344  1  0.87500000  0.70841825  0.07644100  1
  O  O4345  1  0.87500000  0.70841825  0.32644100  1
  O  O4346  1  0.87500000  0.70841825  0.57644100  1
  O  O4347  1  0.87500000  0.70841825  0.82644100  1
  O  O4348  1  0.87500000  0.95841825  0.07644100  1
  O  O4349  1  0.87500000  0.95841825  0.32644100  1
  O  O4350  1  0.87500000  0.95841825  0.57644100  1
  O  O4351  1  0.87500000  0.95841825  0.82644100  1
  O  O4352  1  0.19027225  0.20855700  0.03263475  1
  O  O4353  1  0.19027225  0.20855700  0.28263475  1
  O  O4354  1  0.19027225  0.20855700  0.53263475  1
  O  O4355  1  0.19027225  0.20855700  0.78263475  1
  O  O4356  1  0.19027225  0.45855700  0.03263475  1
  O  O4357  1  0.19027225  0.45855700  0.28263475  1
  O  O4358  1  0.19027225  0.45855700  0.53263475  1
  O  O4359  1  0.19027225  0.45855700  0.78263475  1
  O  O4360  1  0.19027225  0.70855700  0.03263475  1
  O  O4361  1  0.19027225  0.70855700  0.28263475  1
  O  O4362  1  0.19027225  0.70855700  0.53263475  1
  O  O4363  1  0.19027225  0.70855700  0.78263475  1
  O  O4364  1  0.19027225  0.95855700  0.03263475  1
  O  O4365  1  0.19027225  0.95855700  0.28263475  1
  O  O4366  1  0.19027225  0.95855700  0.53263475  1
  O  O4367  1  0.19027225  0.95855700  0.78263475  1
  O  O4368  1  0.44027225  0.20855700  0.03263475  1
  O  O4369  1  0.44027225  0.20855700  0.28263475  1
  O  O4370  1  0.44027225  0.20855700  0.53263475  1
  O  O4371  1  0.44027225  0.20855700  0.78263475  1
  O  O4372  1  0.44027225  0.45855700  0.03263475  1
  O  O4373  1  0.44027225  0.45855700  0.28263475  1
  O  O4374  1  0.44027225  0.45855700  0.53263475  1
  O  O4375  1  0.44027225  0.45855700  0.78263475  1
  O  O4376  1  0.44027225  0.70855700  0.03263475  1
  O  O4377  1  0.44027225  0.70855700  0.28263475  1
  O  O4378  1  0.44027225  0.70855700  0.53263475  1
  O  O4379  1  0.44027225  0.70855700  0.78263475  1
  O  O4380  1  0.44027225  0.95855700  0.03263475  1
  O  O4381  1  0.44027225  0.95855700  0.28263475  1
  O  O4382  1  0.44027225  0.95855700  0.53263475  1
  O  O4383  1  0.44027225  0.95855700  0.78263475  1
  O  O4384  1  0.69027225  0.20855700  0.03263475  1
  O  O4385  1  0.69027225  0.20855700  0.28263475  1
  O  O4386  1  0.69027225  0.20855700  0.53263475  1
  O  O4387  1  0.69027225  0.20855700  0.78263475  1
  O  O4388  1  0.69027225  0.45855700  0.03263475  1
  O  O4389  1  0.69027225  0.45855700  0.28263475  1
  O  O4390  1  0.69027225  0.45855700  0.53263475  1
  O  O4391  1  0.69027225  0.45855700  0.78263475  1
  O  O4392  1  0.69027225  0.70855700  0.03263475  1
  O  O4393  1  0.69027225  0.70855700  0.28263475  1
  O  O4394  1  0.69027225  0.70855700  0.53263475  1
  O  O4395  1  0.69027225  0.70855700  0.78263475  1
  O  O4396  1  0.69027225  0.95855700  0.03263475  1
  O  O4397  1  0.69027225  0.95855700  0.28263475  1
  O  O4398  1  0.69027225  0.95855700  0.53263475  1
  O  O4399  1  0.69027225  0.95855700  0.78263475  1
  O  O4400  1  0.94027225  0.20855700  0.03263475  1
  O  O4401  1  0.94027225  0.20855700  0.28263475  1
  O  O4402  1  0.94027225  0.20855700  0.53263475  1
  O  O4403  1  0.94027225  0.20855700  0.78263475  1
  O  O4404  1  0.94027225  0.45855700  0.03263475  1
  O  O4405  1  0.94027225  0.45855700  0.28263475  1
  O  O4406  1  0.94027225  0.45855700  0.53263475  1
  O  O4407  1  0.94027225  0.45855700  0.78263475  1
  O  O4408  1  0.94027225  0.70855700  0.03263475  1
  O  O4409  1  0.94027225  0.70855700  0.28263475  1
  O  O4410  1  0.94027225  0.70855700  0.53263475  1
  O  O4411  1  0.94027225  0.70855700  0.78263475  1
  O  O4412  1  0.94027225  0.95855700  0.03263475  1
  O  O4413  1  0.94027225  0.95855700  0.28263475  1
  O  O4414  1  0.94027225  0.95855700  0.53263475  1
  O  O4415  1  0.94027225  0.95855700  0.78263475  1
  O  O4416  1  0.05972775  0.20855700  0.03263475  1
  O  O4417  1  0.05972775  0.20855700  0.28263475  1
  O  O4418  1  0.05972775  0.20855700  0.53263475  1
  O  O4419  1  0.05972775  0.20855700  0.78263475  1
  O  O4420  1  0.05972775  0.45855700  0.03263475  1
  O  O4421  1  0.05972775  0.45855700  0.28263475  1
  O  O4422  1  0.05972775  0.45855700  0.53263475  1
  O  O4423  1  0.05972775  0.45855700  0.78263475  1
  O  O4424  1  0.05972775  0.70855700  0.03263475  1
  O  O4425  1  0.05972775  0.70855700  0.28263475  1
  O  O4426  1  0.05972775  0.70855700  0.53263475  1
  O  O4427  1  0.05972775  0.70855700  0.78263475  1
  O  O4428  1  0.05972775  0.95855700  0.03263475  1
  O  O4429  1  0.05972775  0.95855700  0.28263475  1
  O  O4430  1  0.05972775  0.95855700  0.53263475  1
  O  O4431  1  0.05972775  0.95855700  0.78263475  1
  O  O4432  1  0.30972775  0.20855700  0.03263475  1
  O  O4433  1  0.30972775  0.20855700  0.28263475  1
  O  O4434  1  0.30972775  0.20855700  0.53263475  1
  O  O4435  1  0.30972775  0.20855700  0.78263475  1
  O  O4436  1  0.30972775  0.45855700  0.03263475  1
  O  O4437  1  0.30972775  0.45855700  0.28263475  1
  O  O4438  1  0.30972775  0.45855700  0.53263475  1
  O  O4439  1  0.30972775  0.45855700  0.78263475  1
  O  O4440  1  0.30972775  0.70855700  0.03263475  1
  O  O4441  1  0.30972775  0.70855700  0.28263475  1
  O  O4442  1  0.30972775  0.70855700  0.53263475  1
  O  O4443  1  0.30972775  0.70855700  0.78263475  1
  O  O4444  1  0.30972775  0.95855700  0.03263475  1
  O  O4445  1  0.30972775  0.95855700  0.28263475  1
  O  O4446  1  0.30972775  0.95855700  0.53263475  1
  O  O4447  1  0.30972775  0.95855700  0.78263475  1
  O  O4448  1  0.55972775  0.20855700  0.03263475  1
  O  O4449  1  0.55972775  0.20855700  0.28263475  1
  O  O4450  1  0.55972775  0.20855700  0.53263475  1
  O  O4451  1  0.55972775  0.20855700  0.78263475  1
  O  O4452  1  0.55972775  0.45855700  0.03263475  1
  O  O4453  1  0.55972775  0.45855700  0.28263475  1
  O  O4454  1  0.55972775  0.45855700  0.53263475  1
  O  O4455  1  0.55972775  0.45855700  0.78263475  1
  O  O4456  1  0.55972775  0.70855700  0.03263475  1
  O  O4457  1  0.55972775  0.70855700  0.28263475  1
  O  O4458  1  0.55972775  0.70855700  0.53263475  1
  O  O4459  1  0.55972775  0.70855700  0.78263475  1
  O  O4460  1  0.55972775  0.95855700  0.03263475  1
  O  O4461  1  0.55972775  0.95855700  0.28263475  1
  O  O4462  1  0.55972775  0.95855700  0.53263475  1
  O  O4463  1  0.55972775  0.95855700  0.78263475  1
  O  O4464  1  0.80972775  0.20855700  0.03263475  1
  O  O4465  1  0.80972775  0.20855700  0.28263475  1
  O  O4466  1  0.80972775  0.20855700  0.53263475  1
  O  O4467  1  0.80972775  0.20855700  0.78263475  1
  O  O4468  1  0.80972775  0.45855700  0.03263475  1
  O  O4469  1  0.80972775  0.45855700  0.28263475  1
  O  O4470  1  0.80972775  0.45855700  0.53263475  1
  O  O4471  1  0.80972775  0.45855700  0.78263475  1
  O  O4472  1  0.80972775  0.70855700  0.03263475  1
  O  O4473  1  0.80972775  0.70855700  0.28263475  1
  O  O4474  1  0.80972775  0.70855700  0.53263475  1
  O  O4475  1  0.80972775  0.70855700  0.78263475  1
  O  O4476  1  0.80972775  0.95855700  0.03263475  1
  O  O4477  1  0.80972775  0.95855700  0.28263475  1
  O  O4478  1  0.80972775  0.95855700  0.53263475  1
  O  O4479  1  0.80972775  0.95855700  0.78263475  1
  O  O4480  1  0.06405350  0.22517725  0.14247725  1
  O  O4481  1  0.06405350  0.22517725  0.39247725  1
  O  O4482  1  0.06405350  0.22517725  0.64247725  1
  O  O4483  1  0.06405350  0.22517725  0.89247725  1
  O  O4484  1  0.06405350  0.47517725  0.14247725  1
  O  O4485  1  0.06405350  0.47517725  0.39247725  1
  O  O4486  1  0.06405350  0.47517725  0.64247725  1
  O  O4487  1  0.06405350  0.47517725  0.89247725  1
  O  O4488  1  0.06405350  0.72517725  0.14247725  1
  O  O4489  1  0.06405350  0.72517725  0.39247725  1
  O  O4490  1  0.06405350  0.72517725  0.64247725  1
  O  O4491  1  0.06405350  0.72517725  0.89247725  1
  O  O4492  1  0.06405350  0.97517725  0.14247725  1
  O  O4493  1  0.06405350  0.97517725  0.39247725  1
  O  O4494  1  0.06405350  0.97517725  0.64247725  1
  O  O4495  1  0.06405350  0.97517725  0.89247725  1
  O  O4496  1  0.31405350  0.22517725  0.14247725  1
  O  O4497  1  0.31405350  0.22517725  0.39247725  1
  O  O4498  1  0.31405350  0.22517725  0.64247725  1
  O  O4499  1  0.31405350  0.22517725  0.89247725  1
  O  O4500  1  0.31405350  0.47517725  0.14247725  1
  O  O4501  1  0.31405350  0.47517725  0.39247725  1
  O  O4502  1  0.31405350  0.47517725  0.64247725  1
  O  O4503  1  0.31405350  0.47517725  0.89247725  1
  O  O4504  1  0.31405350  0.72517725  0.14247725  1
  O  O4505  1  0.31405350  0.72517725  0.39247725  1
  O  O4506  1  0.31405350  0.72517725  0.64247725  1
  O  O4507  1  0.31405350  0.72517725  0.89247725  1
  O  O4508  1  0.31405350  0.97517725  0.14247725  1
  O  O4509  1  0.31405350  0.97517725  0.39247725  1
  O  O4510  1  0.31405350  0.97517725  0.64247725  1
  O  O4511  1  0.31405350  0.97517725  0.89247725  1
  O  O4512  1  0.56405350  0.22517725  0.14247725  1
  O  O4513  1  0.56405350  0.22517725  0.39247725  1
  O  O4514  1  0.56405350  0.22517725  0.64247725  1
  O  O4515  1  0.56405350  0.22517725  0.89247725  1
  O  O4516  1  0.56405350  0.47517725  0.14247725  1
  O  O4517  1  0.56405350  0.47517725  0.39247725  1
  O  O4518  1  0.56405350  0.47517725  0.64247725  1
  O  O4519  1  0.56405350  0.47517725  0.89247725  1
  O  O4520  1  0.56405350  0.72517725  0.14247725  1
  O  O4521  1  0.56405350  0.72517725  0.39247725  1
  O  O4522  1  0.56405350  0.72517725  0.64247725  1
  O  O4523  1  0.56405350  0.72517725  0.89247725  1
  O  O4524  1  0.56405350  0.97517725  0.14247725  1
  O  O4525  1  0.56405350  0.97517725  0.39247725  1
  O  O4526  1  0.56405350  0.97517725  0.64247725  1
  O  O4527  1  0.56405350  0.97517725  0.89247725  1
  O  O4528  1  0.81405350  0.22517725  0.14247725  1
  O  O4529  1  0.81405350  0.22517725  0.39247725  1
  O  O4530  1  0.81405350  0.22517725  0.64247725  1
  O  O4531  1  0.81405350  0.22517725  0.89247725  1
  O  O4532  1  0.81405350  0.47517725  0.14247725  1
  O  O4533  1  0.81405350  0.47517725  0.39247725  1
  O  O4534  1  0.81405350  0.47517725  0.64247725  1
  O  O4535  1  0.81405350  0.47517725  0.89247725  1
  O  O4536  1  0.81405350  0.72517725  0.14247725  1
  O  O4537  1  0.81405350  0.72517725  0.39247725  1
  O  O4538  1  0.81405350  0.72517725  0.64247725  1
  O  O4539  1  0.81405350  0.72517725  0.89247725  1
  O  O4540  1  0.81405350  0.97517725  0.14247725  1
  O  O4541  1  0.81405350  0.97517725  0.39247725  1
  O  O4542  1  0.81405350  0.97517725  0.64247725  1
  O  O4543  1  0.81405350  0.97517725  0.89247725  1
  O  O4544  1  0.18594650  0.22517725  0.14247725  1
  O  O4545  1  0.18594650  0.22517725  0.39247725  1
  O  O4546  1  0.18594650  0.22517725  0.64247725  1
  O  O4547  1  0.18594650  0.22517725  0.89247725  1
  O  O4548  1  0.18594650  0.47517725  0.14247725  1
  O  O4549  1  0.18594650  0.47517725  0.39247725  1
  O  O4550  1  0.18594650  0.47517725  0.64247725  1
  O  O4551  1  0.18594650  0.47517725  0.89247725  1
  O  O4552  1  0.18594650  0.72517725  0.14247725  1
  O  O4553  1  0.18594650  0.72517725  0.39247725  1
  O  O4554  1  0.18594650  0.72517725  0.64247725  1
  O  O4555  1  0.18594650  0.72517725  0.89247725  1
  O  O4556  1  0.18594650  0.97517725  0.14247725  1
  O  O4557  1  0.18594650  0.97517725  0.39247725  1
  O  O4558  1  0.18594650  0.97517725  0.64247725  1
  O  O4559  1  0.18594650  0.97517725  0.89247725  1
  O  O4560  1  0.43594650  0.22517725  0.14247725  1
  O  O4561  1  0.43594650  0.22517725  0.39247725  1
  O  O4562  1  0.43594650  0.22517725  0.64247725  1
  O  O4563  1  0.43594650  0.22517725  0.89247725  1
  O  O4564  1  0.43594650  0.47517725  0.14247725  1
  O  O4565  1  0.43594650  0.47517725  0.39247725  1
  O  O4566  1  0.43594650  0.47517725  0.64247725  1
  O  O4567  1  0.43594650  0.47517725  0.89247725  1
  O  O4568  1  0.43594650  0.72517725  0.14247725  1
  O  O4569  1  0.43594650  0.72517725  0.39247725  1
  O  O4570  1  0.43594650  0.72517725  0.64247725  1
  O  O4571  1  0.43594650  0.72517725  0.89247725  1
  O  O4572  1  0.43594650  0.97517725  0.14247725  1
  O  O4573  1  0.43594650  0.97517725  0.39247725  1
  O  O4574  1  0.43594650  0.97517725  0.64247725  1
  O  O4575  1  0.43594650  0.97517725  0.89247725  1
  O  O4576  1  0.68594650  0.22517725  0.14247725  1
  O  O4577  1  0.68594650  0.22517725  0.39247725  1
  O  O4578  1  0.68594650  0.22517725  0.64247725  1
  O  O4579  1  0.68594650  0.22517725  0.89247725  1
  O  O4580  1  0.68594650  0.47517725  0.14247725  1
  O  O4581  1  0.68594650  0.47517725  0.39247725  1
  O  O4582  1  0.68594650  0.47517725  0.64247725  1
  O  O4583  1  0.68594650  0.47517725  0.89247725  1
  O  O4584  1  0.68594650  0.72517725  0.14247725  1
  O  O4585  1  0.68594650  0.72517725  0.39247725  1
  O  O4586  1  0.68594650  0.72517725  0.64247725  1
  O  O4587  1  0.68594650  0.72517725  0.89247725  1
  O  O4588  1  0.68594650  0.97517725  0.14247725  1
  O  O4589  1  0.68594650  0.97517725  0.39247725  1
  O  O4590  1  0.68594650  0.97517725  0.64247725  1
  O  O4591  1  0.68594650  0.97517725  0.89247725  1
  O  O4592  1  0.93594650  0.22517725  0.14247725  1
  O  O4593  1  0.93594650  0.22517725  0.39247725  1
  O  O4594  1  0.93594650  0.22517725  0.64247725  1
  O  O4595  1  0.93594650  0.22517725  0.89247725  1
  O  O4596  1  0.93594650  0.47517725  0.14247725  1
  O  O4597  1  0.93594650  0.47517725  0.39247725  1
  O  O4598  1  0.93594650  0.47517725  0.64247725  1
  O  O4599  1  0.93594650  0.47517725  0.89247725  1
  O  O4600  1  0.93594650  0.72517725  0.14247725  1
  O  O4601  1  0.93594650  0.72517725  0.39247725  1
  O  O4602  1  0.93594650  0.72517725  0.64247725  1
  O  O4603  1  0.93594650  0.72517725  0.89247725  1
  O  O4604  1  0.93594650  0.97517725  0.14247725  1
  O  O4605  1  0.93594650  0.97517725  0.39247725  1
  O  O4606  1  0.93594650  0.97517725  0.64247725  1
  O  O4607  1  0.93594650  0.97517725  0.89247725  1
  O  O4608  1  0.00000000  0.22709250  0.22762850  1
  O  O4609  1  0.00000000  0.22709250  0.47762850  1
  O  O4610  1  0.00000000  0.22709250  0.72762850  1
  O  O4611  1  0.00000000  0.22709250  0.97762850  1
  O  O4612  1  0.00000000  0.47709250  0.22762850  1
  O  O4613  1  0.00000000  0.47709250  0.47762850  1
  O  O4614  1  0.00000000  0.47709250  0.72762850  1
  O  O4615  1  0.00000000  0.47709250  0.97762850  1
  O  O4616  1  0.00000000  0.72709250  0.22762850  1
  O  O4617  1  0.00000000  0.72709250  0.47762850  1
  O  O4618  1  0.00000000  0.72709250  0.72762850  1
  O  O4619  1  0.00000000  0.72709250  0.97762850  1
  O  O4620  1  0.00000000  0.97709250  0.22762850  1
  O  O4621  1  0.00000000  0.97709250  0.47762850  1
  O  O4622  1  0.00000000  0.97709250  0.72762850  1
  O  O4623  1  0.00000000  0.97709250  0.97762850  1
  O  O4624  1  0.25000000  0.22709250  0.22762850  1
  O  O4625  1  0.25000000  0.22709250  0.47762850  1
  O  O4626  1  0.25000000  0.22709250  0.72762850  1
  O  O4627  1  0.25000000  0.22709250  0.97762850  1
  O  O4628  1  0.25000000  0.47709250  0.22762850  1
  O  O4629  1  0.25000000  0.47709250  0.47762850  1
  O  O4630  1  0.25000000  0.47709250  0.72762850  1
  O  O4631  1  0.25000000  0.47709250  0.97762850  1
  O  O4632  1  0.25000000  0.72709250  0.22762850  1
  O  O4633  1  0.25000000  0.72709250  0.47762850  1
  O  O4634  1  0.25000000  0.72709250  0.72762850  1
  O  O4635  1  0.25000000  0.72709250  0.97762850  1
  O  O4636  1  0.25000000  0.97709250  0.22762850  1
  O  O4637  1  0.25000000  0.97709250  0.47762850  1
  O  O4638  1  0.25000000  0.97709250  0.72762850  1
  O  O4639  1  0.25000000  0.97709250  0.97762850  1
  O  O4640  1  0.50000000  0.22709250  0.22762850  1
  O  O4641  1  0.50000000  0.22709250  0.47762850  1
  O  O4642  1  0.50000000  0.22709250  0.72762850  1
  O  O4643  1  0.50000000  0.22709250  0.97762850  1
  O  O4644  1  0.50000000  0.47709250  0.22762850  1
  O  O4645  1  0.50000000  0.47709250  0.47762850  1
  O  O4646  1  0.50000000  0.47709250  0.72762850  1
  O  O4647  1  0.50000000  0.47709250  0.97762850  1
  O  O4648  1  0.50000000  0.72709250  0.22762850  1
  O  O4649  1  0.50000000  0.72709250  0.47762850  1
  O  O4650  1  0.50000000  0.72709250  0.72762850  1
  O  O4651  1  0.50000000  0.72709250  0.97762850  1
  O  O4652  1  0.50000000  0.97709250  0.22762850  1
  O  O4653  1  0.50000000  0.97709250  0.47762850  1
  O  O4654  1  0.50000000  0.97709250  0.72762850  1
  O  O4655  1  0.50000000  0.97709250  0.97762850  1
  O  O4656  1  0.75000000  0.22709250  0.22762850  1
  O  O4657  1  0.75000000  0.22709250  0.47762850  1
  O  O4658  1  0.75000000  0.22709250  0.72762850  1
  O  O4659  1  0.75000000  0.22709250  0.97762850  1
  O  O4660  1  0.75000000  0.47709250  0.22762850  1
  O  O4661  1  0.75000000  0.47709250  0.47762850  1
  O  O4662  1  0.75000000  0.47709250  0.72762850  1
  O  O4663  1  0.75000000  0.47709250  0.97762850  1
  O  O4664  1  0.75000000  0.72709250  0.22762850  1
  O  O4665  1  0.75000000  0.72709250  0.47762850  1
  O  O4666  1  0.75000000  0.72709250  0.72762850  1
  O  O4667  1  0.75000000  0.72709250  0.97762850  1
  O  O4668  1  0.75000000  0.97709250  0.22762850  1
  O  O4669  1  0.75000000  0.97709250  0.47762850  1
  O  O4670  1  0.75000000  0.97709250  0.72762850  1
  O  O4671  1  0.75000000  0.97709250  0.97762850  1
  O  O4672  1  0.00000000  0.24588000  0.10403650  1
  O  O4673  1  0.00000000  0.24588000  0.35403650  1
  O  O4674  1  0.00000000  0.24588000  0.60403650  1
  O  O4675  1  0.00000000  0.24588000  0.85403650  1
  O  O4676  1  0.00000000  0.49588000  0.10403650  1
  O  O4677  1  0.00000000  0.49588000  0.35403650  1
  O  O4678  1  0.00000000  0.49588000  0.60403650  1
  O  O4679  1  0.00000000  0.49588000  0.85403650  1
  O  O4680  1  0.00000000  0.74588000  0.10403650  1
  O  O4681  1  0.00000000  0.74588000  0.35403650  1
  O  O4682  1  0.00000000  0.74588000  0.60403650  1
  O  O4683  1  0.00000000  0.74588000  0.85403650  1
  O  O4684  1  0.00000000  0.99588000  0.10403650  1
  O  O4685  1  0.00000000  0.99588000  0.35403650  1
  O  O4686  1  0.00000000  0.99588000  0.60403650  1
  O  O4687  1  0.00000000  0.99588000  0.85403650  1
  O  O4688  1  0.25000000  0.24588000  0.10403650  1
  O  O4689  1  0.25000000  0.24588000  0.35403650  1
  O  O4690  1  0.25000000  0.24588000  0.60403650  1
  O  O4691  1  0.25000000  0.24588000  0.85403650  1
  O  O4692  1  0.25000000  0.49588000  0.10403650  1
  O  O4693  1  0.25000000  0.49588000  0.35403650  1
  O  O4694  1  0.25000000  0.49588000  0.60403650  1
  O  O4695  1  0.25000000  0.49588000  0.85403650  1
  O  O4696  1  0.25000000  0.74588000  0.10403650  1
  O  O4697  1  0.25000000  0.74588000  0.35403650  1
  O  O4698  1  0.25000000  0.74588000  0.60403650  1
  O  O4699  1  0.25000000  0.74588000  0.85403650  1
  O  O4700  1  0.25000000  0.99588000  0.10403650  1
  O  O4701  1  0.25000000  0.99588000  0.35403650  1
  O  O4702  1  0.25000000  0.99588000  0.60403650  1
  O  O4703  1  0.25000000  0.99588000  0.85403650  1
  O  O4704  1  0.50000000  0.24588000  0.10403650  1
  O  O4705  1  0.50000000  0.24588000  0.35403650  1
  O  O4706  1  0.50000000  0.24588000  0.60403650  1
  O  O4707  1  0.50000000  0.24588000  0.85403650  1
  O  O4708  1  0.50000000  0.49588000  0.10403650  1
  O  O4709  1  0.50000000  0.49588000  0.35403650  1
  O  O4710  1  0.50000000  0.49588000  0.60403650  1
  O  O4711  1  0.50000000  0.49588000  0.85403650  1
  O  O4712  1  0.50000000  0.74588000  0.10403650  1
  O  O4713  1  0.50000000  0.74588000  0.35403650  1
  O  O4714  1  0.50000000  0.74588000  0.60403650  1
  O  O4715  1  0.50000000  0.74588000  0.85403650  1
  O  O4716  1  0.50000000  0.99588000  0.10403650  1
  O  O4717  1  0.50000000  0.99588000  0.35403650  1
  O  O4718  1  0.50000000  0.99588000  0.60403650  1
  O  O4719  1  0.50000000  0.99588000  0.85403650  1
  O  O4720  1  0.75000000  0.24588000  0.10403650  1
  O  O4721  1  0.75000000  0.24588000  0.35403650  1
  O  O4722  1  0.75000000  0.24588000  0.60403650  1
  O  O4723  1  0.75000000  0.24588000  0.85403650  1
  O  O4724  1  0.75000000  0.49588000  0.10403650  1
  O  O4725  1  0.75000000  0.49588000  0.35403650  1
  O  O4726  1  0.75000000  0.49588000  0.60403650  1
  O  O4727  1  0.75000000  0.49588000  0.85403650  1
  O  O4728  1  0.75000000  0.74588000  0.10403650  1
  O  O4729  1  0.75000000  0.74588000  0.35403650  1
  O  O4730  1  0.75000000  0.74588000  0.60403650  1
  O  O4731  1  0.75000000  0.74588000  0.85403650  1
  O  O4732  1  0.75000000  0.99588000  0.10403650  1
  O  O4733  1  0.75000000  0.99588000  0.35403650  1
  O  O4734  1  0.75000000  0.99588000  0.60403650  1
  O  O4735  1  0.75000000  0.99588000  0.85403650  1
