# generated using pymatgen
data_Li2P7(H3N)9
_symmetry_space_group_name_H-M   'P 1'
_cell_length_a   37.84211600
_cell_length_b   38.79253882
_cell_length_c   54.96604868
_cell_angle_alpha   99.39369504
_cell_angle_beta   91.79838422
_cell_angle_gamma   118.54168196
_symmetry_Int_Tables_number   1
_chemical_formula_structural   Li2P7(H3N)9
_chemical_formula_sum   'Li256 P896 H3456 N1152'
_cell_volume   69373.89110596
_cell_formula_units_Z   128
loop_
 _symmetry_equiv_pos_site_id
 _symmetry_equiv_pos_as_xyz
  1  'x, y, z'
loop_
 _atom_site_type_symbol
 _atom_site_label
 _atom_site_symmetry_multiplicity
 _atom_site_fract_x
 _atom_site_fract_y
 _atom_site_fract_z
 _atom_site_occupancy
  Li  Li0  1  0.16605850  0.21445950  0.01880775  1
  Li  Li1  1  0.16605850  0.21445950  0.26880775  1
  Li  Li2  1  0.16605850  0.21445950  0.51880775  1
  Li  Li3  1  0.16605850  0.21445950  0.76880775  1
  Li  Li4  1  0.16605850  0.46445950  0.01880775  1
  Li  Li5  1  0.16605850  0.46445950  0.26880775  1
  Li  Li6  1  0.16605850  0.46445950  0.51880775  1
  Li  Li7  1  0.16605850  0.46445950  0.76880775  1
  Li  Li8  1  0.16605850  0.71445950  0.01880775  1
  Li  Li9  1  0.16605850  0.71445950  0.26880775  1
  Li  Li10  1  0.16605850  0.71445950  0.51880775  1
  Li  Li11  1  0.16605850  0.71445950  0.76880775  1
  Li  Li12  1  0.16605850  0.96445950  0.01880775  1
  Li  Li13  1  0.16605850  0.96445950  0.26880775  1
  Li  Li14  1  0.16605850  0.96445950  0.51880775  1
  Li  Li15  1  0.16605850  0.96445950  0.76880775  1
  Li  Li16  1  0.41605850  0.21445950  0.01880775  1
  Li  Li17  1  0.41605850  0.21445950  0.26880775  1
  Li  Li18  1  0.41605850  0.21445950  0.51880775  1
  Li  Li19  1  0.41605850  0.21445950  0.76880775  1
  Li  Li20  1  0.41605850  0.46445950  0.01880775  1
  Li  Li21  1  0.41605850  0.46445950  0.26880775  1
  Li  Li22  1  0.41605850  0.46445950  0.51880775  1
  Li  Li23  1  0.41605850  0.46445950  0.76880775  1
  Li  Li24  1  0.41605850  0.71445950  0.01880775  1
  Li  Li25  1  0.41605850  0.71445950  0.26880775  1
  Li  Li26  1  0.41605850  0.71445950  0.51880775  1
  Li  Li27  1  0.41605850  0.71445950  0.76880775  1
  Li  Li28  1  0.41605850  0.96445950  0.01880775  1
  Li  Li29  1  0.41605850  0.96445950  0.26880775  1
  Li  Li30  1  0.41605850  0.96445950  0.51880775  1
  Li  Li31  1  0.41605850  0.96445950  0.76880775  1
  Li  Li32  1  0.66605850  0.21445950  0.01880775  1
  Li  Li33  1  0.66605850  0.21445950  0.26880775  1
  Li  Li34  1  0.66605850  0.21445950  0.51880775  1
  Li  Li35  1  0.66605850  0.21445950  0.76880775  1
  Li  Li36  1  0.66605850  0.46445950  0.01880775  1
  Li  Li37  1  0.66605850  0.46445950  0.26880775  1
  Li  Li38  1  0.66605850  0.46445950  0.51880775  1
  Li  Li39  1  0.66605850  0.46445950  0.76880775  1
  Li  Li40  1  0.66605850  0.71445950  0.01880775  1
  Li  Li41  1  0.66605850  0.71445950  0.26880775  1
  Li  Li42  1  0.66605850  0.71445950  0.51880775  1
  Li  Li43  1  0.66605850  0.71445950  0.76880775  1
  Li  Li44  1  0.66605850  0.96445950  0.01880775  1
  Li  Li45  1  0.66605850  0.96445950  0.26880775  1
  Li  Li46  1  0.66605850  0.96445950  0.51880775  1
  Li  Li47  1  0.66605850  0.96445950  0.76880775  1
  Li  Li48  1  0.91605850  0.21445950  0.01880775  1
  Li  Li49  1  0.91605850  0.21445950  0.26880775  1
  Li  Li50  1  0.91605850  0.21445950  0.51880775  1
  Li  Li51  1  0.91605850  0.21445950  0.76880775  1
  Li  Li52  1  0.91605850  0.46445950  0.01880775  1
  Li  Li53  1  0.91605850  0.46445950  0.26880775  1
  Li  Li54  1  0.91605850  0.46445950  0.51880775  1
  Li  Li55  1  0.91605850  0.46445950  0.76880775  1
  Li  Li56  1  0.91605850  0.71445950  0.01880775  1
  Li  Li57  1  0.91605850  0.71445950  0.26880775  1
  Li  Li58  1  0.91605850  0.71445950  0.51880775  1
  Li  Li59  1  0.91605850  0.71445950  0.76880775  1
  Li  Li60  1  0.91605850  0.96445950  0.01880775  1
  Li  Li61  1  0.91605850  0.96445950  0.26880775  1
  Li  Li62  1  0.91605850  0.96445950  0.51880775  1
  Li  Li63  1  0.91605850  0.96445950  0.76880775  1
  Li  Li64  1  0.08394150  0.03554050  0.23119225  1
  Li  Li65  1  0.08394150  0.03554050  0.48119225  1
  Li  Li66  1  0.08394150  0.03554050  0.73119225  1
  Li  Li67  1  0.08394150  0.03554050  0.98119225  1
  Li  Li68  1  0.08394150  0.28554050  0.23119225  1
  Li  Li69  1  0.08394150  0.28554050  0.48119225  1
  Li  Li70  1  0.08394150  0.28554050  0.73119225  1
  Li  Li71  1  0.08394150  0.28554050  0.98119225  1
  Li  Li72  1  0.08394150  0.53554050  0.23119225  1
  Li  Li73  1  0.08394150  0.53554050  0.48119225  1
  Li  Li74  1  0.08394150  0.53554050  0.73119225  1
  Li  Li75  1  0.08394150  0.53554050  0.98119225  1
  Li  Li76  1  0.08394150  0.78554050  0.23119225  1
  Li  Li77  1  0.08394150  0.78554050  0.48119225  1
  Li  Li78  1  0.08394150  0.78554050  0.73119225  1
  Li  Li79  1  0.08394150  0.78554050  0.98119225  1
  Li  Li80  1  0.33394150  0.03554050  0.23119225  1
  Li  Li81  1  0.33394150  0.03554050  0.48119225  1
  Li  Li82  1  0.33394150  0.03554050  0.73119225  1
  Li  Li83  1  0.33394150  0.03554050  0.98119225  1
  Li  Li84  1  0.33394150  0.28554050  0.23119225  1
  Li  Li85  1  0.33394150  0.28554050  0.48119225  1
  Li  Li86  1  0.33394150  0.28554050  0.73119225  1
  Li  Li87  1  0.33394150  0.28554050  0.98119225  1
  Li  Li88  1  0.33394150  0.53554050  0.23119225  1
  Li  Li89  1  0.33394150  0.53554050  0.48119225  1
  Li  Li90  1  0.33394150  0.53554050  0.73119225  1
  Li  Li91  1  0.33394150  0.53554050  0.98119225  1
  Li  Li92  1  0.33394150  0.78554050  0.23119225  1
  Li  Li93  1  0.33394150  0.78554050  0.48119225  1
  Li  Li94  1  0.33394150  0.78554050  0.73119225  1
  Li  Li95  1  0.33394150  0.78554050  0.98119225  1
  Li  Li96  1  0.58394150  0.03554050  0.23119225  1
  Li  Li97  1  0.58394150  0.03554050  0.48119225  1
  Li  Li98  1  0.58394150  0.03554050  0.73119225  1
  Li  Li99  1  0.58394150  0.03554050  0.98119225  1
  Li  Li100  1  0.58394150  0.28554050  0.23119225  1
  Li  Li101  1  0.58394150  0.28554050  0.48119225  1
  Li  Li102  1  0.58394150  0.28554050  0.73119225  1
  Li  Li103  1  0.58394150  0.28554050  0.98119225  1
  Li  Li104  1  0.58394150  0.53554050  0.23119225  1
  Li  Li105  1  0.58394150  0.53554050  0.48119225  1
  Li  Li106  1  0.58394150  0.53554050  0.73119225  1
  Li  Li107  1  0.58394150  0.53554050  0.98119225  1
  Li  Li108  1  0.58394150  0.78554050  0.23119225  1
  Li  Li109  1  0.58394150  0.78554050  0.48119225  1
  Li  Li110  1  0.58394150  0.78554050  0.73119225  1
  Li  Li111  1  0.58394150  0.78554050  0.98119225  1
  Li  Li112  1  0.83394150  0.03554050  0.23119225  1
  Li  Li113  1  0.83394150  0.03554050  0.48119225  1
  Li  Li114  1  0.83394150  0.03554050  0.73119225  1
  Li  Li115  1  0.83394150  0.03554050  0.98119225  1
  Li  Li116  1  0.83394150  0.28554050  0.23119225  1
  Li  Li117  1  0.83394150  0.28554050  0.48119225  1
  Li  Li118  1  0.83394150  0.28554050  0.73119225  1
  Li  Li119  1  0.83394150  0.28554050  0.98119225  1
  Li  Li120  1  0.83394150  0.53554050  0.23119225  1
  Li  Li121  1  0.83394150  0.53554050  0.48119225  1
  Li  Li122  1  0.83394150  0.53554050  0.73119225  1
  Li  Li123  1  0.83394150  0.53554050  0.98119225  1
  Li  Li124  1  0.83394150  0.78554050  0.23119225  1
  Li  Li125  1  0.83394150  0.78554050  0.48119225  1
  Li  Li126  1  0.83394150  0.78554050  0.73119225  1
  Li  Li127  1  0.83394150  0.78554050  0.98119225  1
  Li  Li128  1  0.02402350  0.17997975  0.09332900  1
  Li  Li129  1  0.02402350  0.17997975  0.34332900  1
  Li  Li130  1  0.02402350  0.17997975  0.59332900  1
  Li  Li131  1  0.02402350  0.17997975  0.84332900  1
  Li  Li132  1  0.02402350  0.42997975  0.09332900  1
  Li  Li133  1  0.02402350  0.42997975  0.34332900  1
  Li  Li134  1  0.02402350  0.42997975  0.59332900  1
  Li  Li135  1  0.02402350  0.42997975  0.84332900  1
  Li  Li136  1  0.02402350  0.67997975  0.09332900  1
  Li  Li137  1  0.02402350  0.67997975  0.34332900  1
  Li  Li138  1  0.02402350  0.67997975  0.59332900  1
  Li  Li139  1  0.02402350  0.67997975  0.84332900  1
  Li  Li140  1  0.02402350  0.92997975  0.09332900  1
  Li  Li141  1  0.02402350  0.92997975  0.34332900  1
  Li  Li142  1  0.02402350  0.92997975  0.59332900  1
  Li  Li143  1  0.02402350  0.92997975  0.84332900  1
  Li  Li144  1  0.27402350  0.17997975  0.09332900  1
  Li  Li145  1  0.27402350  0.17997975  0.34332900  1
  Li  Li146  1  0.27402350  0.17997975  0.59332900  1
  Li  Li147  1  0.27402350  0.17997975  0.84332900  1
  Li  Li148  1  0.27402350  0.42997975  0.09332900  1
  Li  Li149  1  0.27402350  0.42997975  0.34332900  1
  Li  Li150  1  0.27402350  0.42997975  0.59332900  1
  Li  Li151  1  0.27402350  0.42997975  0.84332900  1
  Li  Li152  1  0.27402350  0.67997975  0.09332900  1
  Li  Li153  1  0.27402350  0.67997975  0.34332900  1
  Li  Li154  1  0.27402350  0.67997975  0.59332900  1
  Li  Li155  1  0.27402350  0.67997975  0.84332900  1
  Li  Li156  1  0.27402350  0.92997975  0.09332900  1
  Li  Li157  1  0.27402350  0.92997975  0.34332900  1
  Li  Li158  1  0.27402350  0.92997975  0.59332900  1
  Li  Li159  1  0.27402350  0.92997975  0.84332900  1
  Li  Li160  1  0.52402350  0.17997975  0.09332900  1
  Li  Li161  1  0.52402350  0.17997975  0.34332900  1
  Li  Li162  1  0.52402350  0.17997975  0.59332900  1
  Li  Li163  1  0.52402350  0.17997975  0.84332900  1
  Li  Li164  1  0.52402350  0.42997975  0.09332900  1
  Li  Li165  1  0.52402350  0.42997975  0.34332900  1
  Li  Li166  1  0.52402350  0.42997975  0.59332900  1
  Li  Li167  1  0.52402350  0.42997975  0.84332900  1
  Li  Li168  1  0.52402350  0.67997975  0.09332900  1
  Li  Li169  1  0.52402350  0.67997975  0.34332900  1
  Li  Li170  1  0.52402350  0.67997975  0.59332900  1
  Li  Li171  1  0.52402350  0.67997975  0.84332900  1
  Li  Li172  1  0.52402350  0.92997975  0.09332900  1
  Li  Li173  1  0.52402350  0.92997975  0.34332900  1
  Li  Li174  1  0.52402350  0.92997975  0.59332900  1
  Li  Li175  1  0.52402350  0.92997975  0.84332900  1
  Li  Li176  1  0.77402350  0.17997975  0.09332900  1
  Li  Li177  1  0.77402350  0.17997975  0.34332900  1
  Li  Li178  1  0.77402350  0.17997975  0.59332900  1
  Li  Li179  1  0.77402350  0.17997975  0.84332900  1
  Li  Li180  1  0.77402350  0.42997975  0.09332900  1
  Li  Li181  1  0.77402350  0.42997975  0.34332900  1
  Li  Li182  1  0.77402350  0.42997975  0.59332900  1
  Li  Li183  1  0.77402350  0.42997975  0.84332900  1
  Li  Li184  1  0.77402350  0.67997975  0.09332900  1
  Li  Li185  1  0.77402350  0.67997975  0.34332900  1
  Li  Li186  1  0.77402350  0.67997975  0.59332900  1
  Li  Li187  1  0.77402350  0.67997975  0.84332900  1
  Li  Li188  1  0.77402350  0.92997975  0.09332900  1
  Li  Li189  1  0.77402350  0.92997975  0.34332900  1
  Li  Li190  1  0.77402350  0.92997975  0.59332900  1
  Li  Li191  1  0.77402350  0.92997975  0.84332900  1
  Li  Li192  1  0.22597650  0.07002025  0.15667100  1
  Li  Li193  1  0.22597650  0.07002025  0.40667100  1
  Li  Li194  1  0.22597650  0.07002025  0.65667100  1
  Li  Li195  1  0.22597650  0.07002025  0.90667100  1
  Li  Li196  1  0.22597650  0.32002025  0.15667100  1
  Li  Li197  1  0.22597650  0.32002025  0.40667100  1
  Li  Li198  1  0.22597650  0.32002025  0.65667100  1
  Li  Li199  1  0.22597650  0.32002025  0.90667100  1
  Li  Li200  1  0.22597650  0.57002025  0.15667100  1
  Li  Li201  1  0.22597650  0.57002025  0.40667100  1
  Li  Li202  1  0.22597650  0.57002025  0.65667100  1
  Li  Li203  1  0.22597650  0.57002025  0.90667100  1
  Li  Li204  1  0.22597650  0.82002025  0.15667100  1
  Li  Li205  1  0.22597650  0.82002025  0.40667100  1
  Li  Li206  1  0.22597650  0.82002025  0.65667100  1
  Li  Li207  1  0.22597650  0.82002025  0.90667100  1
  Li  Li208  1  0.47597650  0.07002025  0.15667100  1
  Li  Li209  1  0.47597650  0.07002025  0.40667100  1
  Li  Li210  1  0.47597650  0.07002025  0.65667100  1
  Li  Li211  1  0.47597650  0.07002025  0.90667100  1
  Li  Li212  1  0.47597650  0.32002025  0.15667100  1
  Li  Li213  1  0.47597650  0.32002025  0.40667100  1
  Li  Li214  1  0.47597650  0.32002025  0.65667100  1
  Li  Li215  1  0.47597650  0.32002025  0.90667100  1
  Li  Li216  1  0.47597650  0.57002025  0.15667100  1
  Li  Li217  1  0.47597650  0.57002025  0.40667100  1
  Li  Li218  1  0.47597650  0.57002025  0.65667100  1
  Li  Li219  1  0.47597650  0.57002025  0.90667100  1
  Li  Li220  1  0.47597650  0.82002025  0.15667100  1
  Li  Li221  1  0.47597650  0.82002025  0.40667100  1
  Li  Li222  1  0.47597650  0.82002025  0.65667100  1
  Li  Li223  1  0.47597650  0.82002025  0.90667100  1
  Li  Li224  1  0.72597650  0.07002025  0.15667100  1
  Li  Li225  1  0.72597650  0.07002025  0.40667100  1
  Li  Li226  1  0.72597650  0.07002025  0.65667100  1
  Li  Li227  1  0.72597650  0.07002025  0.90667100  1
  Li  Li228  1  0.72597650  0.32002025  0.15667100  1
  Li  Li229  1  0.72597650  0.32002025  0.40667100  1
  Li  Li230  1  0.72597650  0.32002025  0.65667100  1
  Li  Li231  1  0.72597650  0.32002025  0.90667100  1
  Li  Li232  1  0.72597650  0.57002025  0.15667100  1
  Li  Li233  1  0.72597650  0.57002025  0.40667100  1
  Li  Li234  1  0.72597650  0.57002025  0.65667100  1
  Li  Li235  1  0.72597650  0.57002025  0.90667100  1
  Li  Li236  1  0.72597650  0.82002025  0.15667100  1
  Li  Li237  1  0.72597650  0.82002025  0.40667100  1
  Li  Li238  1  0.72597650  0.82002025  0.65667100  1
  Li  Li239  1  0.72597650  0.82002025  0.90667100  1
  Li  Li240  1  0.97597650  0.07002025  0.15667100  1
  Li  Li241  1  0.97597650  0.07002025  0.40667100  1
  Li  Li242  1  0.97597650  0.07002025  0.65667100  1
  Li  Li243  1  0.97597650  0.07002025  0.90667100  1
  Li  Li244  1  0.97597650  0.32002025  0.15667100  1
  Li  Li245  1  0.97597650  0.32002025  0.40667100  1
  Li  Li246  1  0.97597650  0.32002025  0.65667100  1
  Li  Li247  1  0.97597650  0.32002025  0.90667100  1
  Li  Li248  1  0.97597650  0.57002025  0.15667100  1
  Li  Li249  1  0.97597650  0.57002025  0.40667100  1
  Li  Li250  1  0.97597650  0.57002025  0.65667100  1
  Li  Li251  1  0.97597650  0.57002025  0.90667100  1
  Li  Li252  1  0.97597650  0.82002025  0.15667100  1
  Li  Li253  1  0.97597650  0.82002025  0.40667100  1
  Li  Li254  1  0.97597650  0.82002025  0.65667100  1
  Li  Li255  1  0.97597650  0.82002025  0.90667100  1
  P  P256  1  0.08404325  0.05126850  0.09511550  1
  P  P257  1  0.08404325  0.05126850  0.34511550  1
  P  P258  1  0.08404325  0.05126850  0.59511550  1
  P  P259  1  0.08404325  0.05126850  0.84511550  1
  P  P260  1  0.08404325  0.30126850  0.09511550  1
  P  P261  1  0.08404325  0.30126850  0.34511550  1
  P  P262  1  0.08404325  0.30126850  0.59511550  1
  P  P263  1  0.08404325  0.30126850  0.84511550  1
  P  P264  1  0.08404325  0.55126850  0.09511550  1
  P  P265  1  0.08404325  0.55126850  0.34511550  1
  P  P266  1  0.08404325  0.55126850  0.59511550  1
  P  P267  1  0.08404325  0.55126850  0.84511550  1
  P  P268  1  0.08404325  0.80126850  0.09511550  1
  P  P269  1  0.08404325  0.80126850  0.34511550  1
  P  P270  1  0.08404325  0.80126850  0.59511550  1
  P  P271  1  0.08404325  0.80126850  0.84511550  1
  P  P272  1  0.33404325  0.05126850  0.09511550  1
  P  P273  1  0.33404325  0.05126850  0.34511550  1
  P  P274  1  0.33404325  0.05126850  0.59511550  1
  P  P275  1  0.33404325  0.05126850  0.84511550  1
  P  P276  1  0.33404325  0.30126850  0.09511550  1
  P  P277  1  0.33404325  0.30126850  0.34511550  1
  P  P278  1  0.33404325  0.30126850  0.59511550  1
  P  P279  1  0.33404325  0.30126850  0.84511550  1
  P  P280  1  0.33404325  0.55126850  0.09511550  1
  P  P281  1  0.33404325  0.55126850  0.34511550  1
  P  P282  1  0.33404325  0.55126850  0.59511550  1
  P  P283  1  0.33404325  0.55126850  0.84511550  1
  P  P284  1  0.33404325  0.80126850  0.09511550  1
  P  P285  1  0.33404325  0.80126850  0.34511550  1
  P  P286  1  0.33404325  0.80126850  0.59511550  1
  P  P287  1  0.33404325  0.80126850  0.84511550  1
  P  P288  1  0.58404325  0.05126850  0.09511550  1
  P  P289  1  0.58404325  0.05126850  0.34511550  1
  P  P290  1  0.58404325  0.05126850  0.59511550  1
  P  P291  1  0.58404325  0.05126850  0.84511550  1
  P  P292  1  0.58404325  0.30126850  0.09511550  1
  P  P293  1  0.58404325  0.30126850  0.34511550  1
  P  P294  1  0.58404325  0.30126850  0.59511550  1
  P  P295  1  0.58404325  0.30126850  0.84511550  1
  P  P296  1  0.58404325  0.55126850  0.09511550  1
  P  P297  1  0.58404325  0.55126850  0.34511550  1
  P  P298  1  0.58404325  0.55126850  0.59511550  1
  P  P299  1  0.58404325  0.55126850  0.84511550  1
  P  P300  1  0.58404325  0.80126850  0.09511550  1
  P  P301  1  0.58404325  0.80126850  0.34511550  1
  P  P302  1  0.58404325  0.80126850  0.59511550  1
  P  P303  1  0.58404325  0.80126850  0.84511550  1
  P  P304  1  0.83404325  0.05126850  0.09511550  1
  P  P305  1  0.83404325  0.05126850  0.34511550  1
  P  P306  1  0.83404325  0.05126850  0.59511550  1
  P  P307  1  0.83404325  0.05126850  0.84511550  1
  P  P308  1  0.83404325  0.30126850  0.09511550  1
  P  P309  1  0.83404325  0.30126850  0.34511550  1
  P  P310  1  0.83404325  0.30126850  0.59511550  1
  P  P311  1  0.83404325  0.30126850  0.84511550  1
  P  P312  1  0.83404325  0.55126850  0.09511550  1
  P  P313  1  0.83404325  0.55126850  0.34511550  1
  P  P314  1  0.83404325  0.55126850  0.59511550  1
  P  P315  1  0.83404325  0.55126850  0.84511550  1
  P  P316  1  0.83404325  0.80126850  0.09511550  1
  P  P317  1  0.83404325  0.80126850  0.34511550  1
  P  P318  1  0.83404325  0.80126850  0.59511550  1
  P  P319  1  0.83404325  0.80126850  0.84511550  1
  P  P320  1  0.16595675  0.19873150  0.15488450  1
  P  P321  1  0.16595675  0.19873150  0.40488450  1
  P  P322  1  0.16595675  0.19873150  0.65488450  1
  P  P323  1  0.16595675  0.19873150  0.90488450  1
  P  P324  1  0.16595675  0.44873150  0.15488450  1
  P  P325  1  0.16595675  0.44873150  0.40488450  1
  P  P326  1  0.16595675  0.44873150  0.65488450  1
  P  P327  1  0.16595675  0.44873150  0.90488450  1
  P  P328  1  0.16595675  0.69873150  0.15488450  1
  P  P329  1  0.16595675  0.69873150  0.40488450  1
  P  P330  1  0.16595675  0.69873150  0.65488450  1
  P  P331  1  0.16595675  0.69873150  0.90488450  1
  P  P332  1  0.16595675  0.94873150  0.15488450  1
  P  P333  1  0.16595675  0.94873150  0.40488450  1
  P  P334  1  0.16595675  0.94873150  0.65488450  1
  P  P335  1  0.16595675  0.94873150  0.90488450  1
  P  P336  1  0.41595675  0.19873150  0.15488450  1
  P  P337  1  0.41595675  0.19873150  0.40488450  1
  P  P338  1  0.41595675  0.19873150  0.65488450  1
  P  P339  1  0.41595675  0.19873150  0.90488450  1
  P  P340  1  0.41595675  0.44873150  0.15488450  1
  P  P341  1  0.41595675  0.44873150  0.40488450  1
  P  P342  1  0.41595675  0.44873150  0.65488450  1
  P  P343  1  0.41595675  0.44873150  0.90488450  1
  P  P344  1  0.41595675  0.69873150  0.15488450  1
  P  P345  1  0.41595675  0.69873150  0.40488450  1
  P  P346  1  0.41595675  0.69873150  0.65488450  1
  P  P347  1  0.41595675  0.69873150  0.90488450  1
  P  P348  1  0.41595675  0.94873150  0.15488450  1
  P  P349  1  0.41595675  0.94873150  0.40488450  1
  P  P350  1  0.41595675  0.94873150  0.65488450  1
  P  P351  1  0.41595675  0.94873150  0.90488450  1
  P  P352  1  0.66595675  0.19873150  0.15488450  1
  P  P353  1  0.66595675  0.19873150  0.40488450  1
  P  P354  1  0.66595675  0.19873150  0.65488450  1
  P  P355  1  0.66595675  0.19873150  0.90488450  1
  P  P356  1  0.66595675  0.44873150  0.15488450  1
  P  P357  1  0.66595675  0.44873150  0.40488450  1
  P  P358  1  0.66595675  0.44873150  0.65488450  1
  P  P359  1  0.66595675  0.44873150  0.90488450  1
  P  P360  1  0.66595675  0.69873150  0.15488450  1
  P  P361  1  0.66595675  0.69873150  0.40488450  1
  P  P362  1  0.66595675  0.69873150  0.65488450  1
  P  P363  1  0.66595675  0.69873150  0.90488450  1
  P  P364  1  0.66595675  0.94873150  0.15488450  1
  P  P365  1  0.66595675  0.94873150  0.40488450  1
  P  P366  1  0.66595675  0.94873150  0.65488450  1
  P  P367  1  0.66595675  0.94873150  0.90488450  1
  P  P368  1  0.91595675  0.19873150  0.15488450  1
  P  P369  1  0.91595675  0.19873150  0.40488450  1
  P  P370  1  0.91595675  0.19873150  0.65488450  1
  P  P371  1  0.91595675  0.19873150  0.90488450  1
  P  P372  1  0.91595675  0.44873150  0.15488450  1
  P  P373  1  0.91595675  0.44873150  0.40488450  1
  P  P374  1  0.91595675  0.44873150  0.65488450  1
  P  P375  1  0.91595675  0.44873150  0.90488450  1
  P  P376  1  0.91595675  0.69873150  0.15488450  1
  P  P377  1  0.91595675  0.69873150  0.40488450  1
  P  P378  1  0.91595675  0.69873150  0.65488450  1
  P  P379  1  0.91595675  0.69873150  0.90488450  1
  P  P380  1  0.91595675  0.94873150  0.15488450  1
  P  P381  1  0.91595675  0.94873150  0.40488450  1
  P  P382  1  0.91595675  0.94873150  0.65488450  1
  P  P383  1  0.91595675  0.94873150  0.90488450  1
  P  P384  1  0.09388350  0.11127450  0.11427675  1
  P  P385  1  0.09388350  0.11127450  0.36427675  1
  P  P386  1  0.09388350  0.11127450  0.61427675  1
  P  P387  1  0.09388350  0.11127450  0.86427675  1
  P  P388  1  0.09388350  0.36127450  0.11427675  1
  P  P389  1  0.09388350  0.36127450  0.36427675  1
  P  P390  1  0.09388350  0.36127450  0.61427675  1
  P  P391  1  0.09388350  0.36127450  0.86427675  1
  P  P392  1  0.09388350  0.61127450  0.11427675  1
  P  P393  1  0.09388350  0.61127450  0.36427675  1
  P  P394  1  0.09388350  0.61127450  0.61427675  1
  P  P395  1  0.09388350  0.61127450  0.86427675  1
  P  P396  1  0.09388350  0.86127450  0.11427675  1
  P  P397  1  0.09388350  0.86127450  0.36427675  1
  P  P398  1  0.09388350  0.86127450  0.61427675  1
  P  P399  1  0.09388350  0.86127450  0.86427675  1
  P  P400  1  0.34388350  0.11127450  0.11427675  1
  P  P401  1  0.34388350  0.11127450  0.36427675  1
  P  P402  1  0.34388350  0.11127450  0.61427675  1
  P  P403  1  0.34388350  0.11127450  0.86427675  1
  P  P404  1  0.34388350  0.36127450  0.11427675  1
  P  P405  1  0.34388350  0.36127450  0.36427675  1
  P  P406  1  0.34388350  0.36127450  0.61427675  1
  P  P407  1  0.34388350  0.36127450  0.86427675  1
  P  P408  1  0.34388350  0.61127450  0.11427675  1
  P  P409  1  0.34388350  0.61127450  0.36427675  1
  P  P410  1  0.34388350  0.61127450  0.61427675  1
  P  P411  1  0.34388350  0.61127450  0.86427675  1
  P  P412  1  0.34388350  0.86127450  0.11427675  1
  P  P413  1  0.34388350  0.86127450  0.36427675  1
  P  P414  1  0.34388350  0.86127450  0.61427675  1
  P  P415  1  0.34388350  0.86127450  0.86427675  1
  P  P416  1  0.59388350  0.11127450  0.11427675  1
  P  P417  1  0.59388350  0.11127450  0.36427675  1
  P  P418  1  0.59388350  0.11127450  0.61427675  1
  P  P419  1  0.59388350  0.11127450  0.86427675  1
  P  P420  1  0.59388350  0.36127450  0.11427675  1
  P  P421  1  0.59388350  0.36127450  0.36427675  1
  P  P422  1  0.59388350  0.36127450  0.61427675  1
  P  P423  1  0.59388350  0.36127450  0.86427675  1
  P  P424  1  0.59388350  0.61127450  0.11427675  1
  P  P425  1  0.59388350  0.61127450  0.36427675  1
  P  P426  1  0.59388350  0.61127450  0.61427675  1
  P  P427  1  0.59388350  0.61127450  0.86427675  1
  P  P428  1  0.59388350  0.86127450  0.11427675  1
  P  P429  1  0.59388350  0.86127450  0.36427675  1
  P  P430  1  0.59388350  0.86127450  0.61427675  1
  P  P431  1  0.59388350  0.86127450  0.86427675  1
  P  P432  1  0.84388350  0.11127450  0.11427675  1
  P  P433  1  0.84388350  0.11127450  0.36427675  1
  P  P434  1  0.84388350  0.11127450  0.61427675  1
  P  P435  1  0.84388350  0.11127450  0.86427675  1
  P  P436  1  0.84388350  0.36127450  0.11427675  1
  P  P437  1  0.84388350  0.36127450  0.36427675  1
  P  P438  1  0.84388350  0.36127450  0.61427675  1
  P  P439  1  0.84388350  0.36127450  0.86427675  1
  P  P440  1  0.84388350  0.61127450  0.11427675  1
  P  P441  1  0.84388350  0.61127450  0.36427675  1
  P  P442  1  0.84388350  0.61127450  0.61427675  1
  P  P443  1  0.84388350  0.61127450  0.86427675  1
  P  P444  1  0.84388350  0.86127450  0.11427675  1
  P  P445  1  0.84388350  0.86127450  0.36427675  1
  P  P446  1  0.84388350  0.86127450  0.61427675  1
  P  P447  1  0.84388350  0.86127450  0.86427675  1
  P  P448  1  0.15611650  0.13872550  0.13572325  1
  P  P449  1  0.15611650  0.13872550  0.38572325  1
  P  P450  1  0.15611650  0.13872550  0.63572325  1
  P  P451  1  0.15611650  0.13872550  0.88572325  1
  P  P452  1  0.15611650  0.38872550  0.13572325  1
  P  P453  1  0.15611650  0.38872550  0.38572325  1
  P  P454  1  0.15611650  0.38872550  0.63572325  1
  P  P455  1  0.15611650  0.38872550  0.88572325  1
  P  P456  1  0.15611650  0.63872550  0.13572325  1
  P  P457  1  0.15611650  0.63872550  0.38572325  1
  P  P458  1  0.15611650  0.63872550  0.63572325  1
  P  P459  1  0.15611650  0.63872550  0.88572325  1
  P  P460  1  0.15611650  0.88872550  0.13572325  1
  P  P461  1  0.15611650  0.88872550  0.38572325  1
  P  P462  1  0.15611650  0.88872550  0.63572325  1
  P  P463  1  0.15611650  0.88872550  0.88572325  1
  P  P464  1  0.40611650  0.13872550  0.13572325  1
  P  P465  1  0.40611650  0.13872550  0.38572325  1
  P  P466  1  0.40611650  0.13872550  0.63572325  1
  P  P467  1  0.40611650  0.13872550  0.88572325  1
  P  P468  1  0.40611650  0.38872550  0.13572325  1
  P  P469  1  0.40611650  0.38872550  0.38572325  1
  P  P470  1  0.40611650  0.38872550  0.63572325  1
  P  P471  1  0.40611650  0.38872550  0.88572325  1
  P  P472  1  0.40611650  0.63872550  0.13572325  1
  P  P473  1  0.40611650  0.63872550  0.38572325  1
  P  P474  1  0.40611650  0.63872550  0.63572325  1
  P  P475  1  0.40611650  0.63872550  0.88572325  1
  P  P476  1  0.40611650  0.88872550  0.13572325  1
  P  P477  1  0.40611650  0.88872550  0.38572325  1
  P  P478  1  0.40611650  0.88872550  0.63572325  1
  P  P479  1  0.40611650  0.88872550  0.88572325  1
  P  P480  1  0.65611650  0.13872550  0.13572325  1
  P  P481  1  0.65611650  0.13872550  0.38572325  1
  P  P482  1  0.65611650  0.13872550  0.63572325  1
  P  P483  1  0.65611650  0.13872550  0.88572325  1
  P  P484  1  0.65611650  0.38872550  0.13572325  1
  P  P485  1  0.65611650  0.38872550  0.38572325  1
  P  P486  1  0.65611650  0.38872550  0.63572325  1
  P  P487  1  0.65611650  0.38872550  0.88572325  1
  P  P488  1  0.65611650  0.63872550  0.13572325  1
  P  P489  1  0.65611650  0.63872550  0.38572325  1
  P  P490  1  0.65611650  0.63872550  0.63572325  1
  P  P491  1  0.65611650  0.63872550  0.88572325  1
  P  P492  1  0.65611650  0.88872550  0.13572325  1
  P  P493  1  0.65611650  0.88872550  0.38572325  1
  P  P494  1  0.65611650  0.88872550  0.63572325  1
  P  P495  1  0.65611650  0.88872550  0.88572325  1
  P  P496  1  0.90611650  0.13872550  0.13572325  1
  P  P497  1  0.90611650  0.13872550  0.38572325  1
  P  P498  1  0.90611650  0.13872550  0.63572325  1
  P  P499  1  0.90611650  0.13872550  0.88572325  1
  P  P500  1  0.90611650  0.38872550  0.13572325  1
  P  P501  1  0.90611650  0.38872550  0.38572325  1
  P  P502  1  0.90611650  0.38872550  0.63572325  1
  P  P503  1  0.90611650  0.38872550  0.88572325  1
  P  P504  1  0.90611650  0.63872550  0.13572325  1
  P  P505  1  0.90611650  0.63872550  0.38572325  1
  P  P506  1  0.90611650  0.63872550  0.63572325  1
  P  P507  1  0.90611650  0.63872550  0.88572325  1
  P  P508  1  0.90611650  0.88872550  0.13572325  1
  P  P509  1  0.90611650  0.88872550  0.38572325  1
  P  P510  1  0.90611650  0.88872550  0.63572325  1
  P  P511  1  0.90611650  0.88872550  0.88572325  1
  P  P512  1  0.13669750  0.06509875  0.07543200  1
  P  P513  1  0.13669750  0.06509875  0.32543200  1
  P  P514  1  0.13669750  0.06509875  0.57543200  1
  P  P515  1  0.13669750  0.06509875  0.82543200  1
  P  P516  1  0.13669750  0.31509875  0.07543200  1
  P  P517  1  0.13669750  0.31509875  0.32543200  1
  P  P518  1  0.13669750  0.31509875  0.57543200  1
  P  P519  1  0.13669750  0.31509875  0.82543200  1
  P  P520  1  0.13669750  0.56509875  0.07543200  1
  P  P521  1  0.13669750  0.56509875  0.32543200  1
  P  P522  1  0.13669750  0.56509875  0.57543200  1
  P  P523  1  0.13669750  0.56509875  0.82543200  1
  P  P524  1  0.13669750  0.81509875  0.07543200  1
  P  P525  1  0.13669750  0.81509875  0.32543200  1
  P  P526  1  0.13669750  0.81509875  0.57543200  1
  P  P527  1  0.13669750  0.81509875  0.82543200  1
  P  P528  1  0.38669750  0.06509875  0.07543200  1
  P  P529  1  0.38669750  0.06509875  0.32543200  1
  P  P530  1  0.38669750  0.06509875  0.57543200  1
  P  P531  1  0.38669750  0.06509875  0.82543200  1
  P  P532  1  0.38669750  0.31509875  0.07543200  1
  P  P533  1  0.38669750  0.31509875  0.32543200  1
  P  P534  1  0.38669750  0.31509875  0.57543200  1
  P  P535  1  0.38669750  0.31509875  0.82543200  1
  P  P536  1  0.38669750  0.56509875  0.07543200  1
  P  P537  1  0.38669750  0.56509875  0.32543200  1
  P  P538  1  0.38669750  0.56509875  0.57543200  1
  P  P539  1  0.38669750  0.56509875  0.82543200  1
  P  P540  1  0.38669750  0.81509875  0.07543200  1
  P  P541  1  0.38669750  0.81509875  0.32543200  1
  P  P542  1  0.38669750  0.81509875  0.57543200  1
  P  P543  1  0.38669750  0.81509875  0.82543200  1
  P  P544  1  0.63669750  0.06509875  0.07543200  1
  P  P545  1  0.63669750  0.06509875  0.32543200  1
  P  P546  1  0.63669750  0.06509875  0.57543200  1
  P  P547  1  0.63669750  0.06509875  0.82543200  1
  P  P548  1  0.63669750  0.31509875  0.07543200  1
  P  P549  1  0.63669750  0.31509875  0.32543200  1
  P  P550  1  0.63669750  0.31509875  0.57543200  1
  P  P551  1  0.63669750  0.31509875  0.82543200  1
  P  P552  1  0.63669750  0.56509875  0.07543200  1
  P  P553  1  0.63669750  0.56509875  0.32543200  1
  P  P554  1  0.63669750  0.56509875  0.57543200  1
  P  P555  1  0.63669750  0.56509875  0.82543200  1
  P  P556  1  0.63669750  0.81509875  0.07543200  1
  P  P557  1  0.63669750  0.81509875  0.32543200  1
  P  P558  1  0.63669750  0.81509875  0.57543200  1
  P  P559  1  0.63669750  0.81509875  0.82543200  1
  P  P560  1  0.88669750  0.06509875  0.07543200  1
  P  P561  1  0.88669750  0.06509875  0.32543200  1
  P  P562  1  0.88669750  0.06509875  0.57543200  1
  P  P563  1  0.88669750  0.06509875  0.82543200  1
  P  P564  1  0.88669750  0.31509875  0.07543200  1
  P  P565  1  0.88669750  0.31509875  0.32543200  1
  P  P566  1  0.88669750  0.31509875  0.57543200  1
  P  P567  1  0.88669750  0.31509875  0.82543200  1
  P  P568  1  0.88669750  0.56509875  0.07543200  1
  P  P569  1  0.88669750  0.56509875  0.32543200  1
  P  P570  1  0.88669750  0.56509875  0.57543200  1
  P  P571  1  0.88669750  0.56509875  0.82543200  1
  P  P572  1  0.88669750  0.81509875  0.07543200  1
  P  P573  1  0.88669750  0.81509875  0.32543200  1
  P  P574  1  0.88669750  0.81509875  0.57543200  1
  P  P575  1  0.88669750  0.81509875  0.82543200  1
  P  P576  1  0.11330250  0.18490125  0.17456800  1
  P  P577  1  0.11330250  0.18490125  0.42456800  1
  P  P578  1  0.11330250  0.18490125  0.67456800  1
  P  P579  1  0.11330250  0.18490125  0.92456800  1
  P  P580  1  0.11330250  0.43490125  0.17456800  1
  P  P581  1  0.11330250  0.43490125  0.42456800  1
  P  P582  1  0.11330250  0.43490125  0.67456800  1
  P  P583  1  0.11330250  0.43490125  0.92456800  1
  P  P584  1  0.11330250  0.68490125  0.17456800  1
  P  P585  1  0.11330250  0.68490125  0.42456800  1
  P  P586  1  0.11330250  0.68490125  0.67456800  1
  P  P587  1  0.11330250  0.68490125  0.92456800  1
  P  P588  1  0.11330250  0.93490125  0.17456800  1
  P  P589  1  0.11330250  0.93490125  0.42456800  1
  P  P590  1  0.11330250  0.93490125  0.67456800  1
  P  P591  1  0.11330250  0.93490125  0.92456800  1
  P  P592  1  0.36330250  0.18490125  0.17456800  1
  P  P593  1  0.36330250  0.18490125  0.42456800  1
  P  P594  1  0.36330250  0.18490125  0.67456800  1
  P  P595  1  0.36330250  0.18490125  0.92456800  1
  P  P596  1  0.36330250  0.43490125  0.17456800  1
  P  P597  1  0.36330250  0.43490125  0.42456800  1
  P  P598  1  0.36330250  0.43490125  0.67456800  1
  P  P599  1  0.36330250  0.43490125  0.92456800  1
  P  P600  1  0.36330250  0.68490125  0.17456800  1
  P  P601  1  0.36330250  0.68490125  0.42456800  1
  P  P602  1  0.36330250  0.68490125  0.67456800  1
  P  P603  1  0.36330250  0.68490125  0.92456800  1
  P  P604  1  0.36330250  0.93490125  0.17456800  1
  P  P605  1  0.36330250  0.93490125  0.42456800  1
  P  P606  1  0.36330250  0.93490125  0.67456800  1
  P  P607  1  0.36330250  0.93490125  0.92456800  1
  P  P608  1  0.61330250  0.18490125  0.17456800  1
  P  P609  1  0.61330250  0.18490125  0.42456800  1
  P  P610  1  0.61330250  0.18490125  0.67456800  1
  P  P611  1  0.61330250  0.18490125  0.92456800  1
  P  P612  1  0.61330250  0.43490125  0.17456800  1
  P  P613  1  0.61330250  0.43490125  0.42456800  1
  P  P614  1  0.61330250  0.43490125  0.67456800  1
  P  P615  1  0.61330250  0.43490125  0.92456800  1
  P  P616  1  0.61330250  0.68490125  0.17456800  1
  P  P617  1  0.61330250  0.68490125  0.42456800  1
  P  P618  1  0.61330250  0.68490125  0.67456800  1
  P  P619  1  0.61330250  0.68490125  0.92456800  1
  P  P620  1  0.61330250  0.93490125  0.17456800  1
  P  P621  1  0.61330250  0.93490125  0.42456800  1
  P  P622  1  0.61330250  0.93490125  0.67456800  1
  P  P623  1  0.61330250  0.93490125  0.92456800  1
  P  P624  1  0.86330250  0.18490125  0.17456800  1
  P  P625  1  0.86330250  0.18490125  0.42456800  1
  P  P626  1  0.86330250  0.18490125  0.67456800  1
  P  P627  1  0.86330250  0.18490125  0.92456800  1
  P  P628  1  0.86330250  0.43490125  0.17456800  1
  P  P629  1  0.86330250  0.43490125  0.42456800  1
  P  P630  1  0.86330250  0.43490125  0.67456800  1
  P  P631  1  0.86330250  0.43490125  0.92456800  1
  P  P632  1  0.86330250  0.68490125  0.17456800  1
  P  P633  1  0.86330250  0.68490125  0.42456800  1
  P  P634  1  0.86330250  0.68490125  0.67456800  1
  P  P635  1  0.86330250  0.68490125  0.92456800  1
  P  P636  1  0.86330250  0.93490125  0.17456800  1
  P  P637  1  0.86330250  0.93490125  0.42456800  1
  P  P638  1  0.86330250  0.93490125  0.67456800  1
  P  P639  1  0.86330250  0.93490125  0.92456800  1
  P  P640  1  0.03628425  0.04149300  0.06700125  1
  P  P641  1  0.03628425  0.04149300  0.31700125  1
  P  P642  1  0.03628425  0.04149300  0.56700125  1
  P  P643  1  0.03628425  0.04149300  0.81700125  1
  P  P644  1  0.03628425  0.29149300  0.06700125  1
  P  P645  1  0.03628425  0.29149300  0.31700125  1
  P  P646  1  0.03628425  0.29149300  0.56700125  1
  P  P647  1  0.03628425  0.29149300  0.81700125  1
  P  P648  1  0.03628425  0.54149300  0.06700125  1
  P  P649  1  0.03628425  0.54149300  0.31700125  1
  P  P650  1  0.03628425  0.54149300  0.56700125  1
  P  P651  1  0.03628425  0.54149300  0.81700125  1
  P  P652  1  0.03628425  0.79149300  0.06700125  1
  P  P653  1  0.03628425  0.79149300  0.31700125  1
  P  P654  1  0.03628425  0.79149300  0.56700125  1
  P  P655  1  0.03628425  0.79149300  0.81700125  1
  P  P656  1  0.28628425  0.04149300  0.06700125  1
  P  P657  1  0.28628425  0.04149300  0.31700125  1
  P  P658  1  0.28628425  0.04149300  0.56700125  1
  P  P659  1  0.28628425  0.04149300  0.81700125  1
  P  P660  1  0.28628425  0.29149300  0.06700125  1
  P  P661  1  0.28628425  0.29149300  0.31700125  1
  P  P662  1  0.28628425  0.29149300  0.56700125  1
  P  P663  1  0.28628425  0.29149300  0.81700125  1
  P  P664  1  0.28628425  0.54149300  0.06700125  1
  P  P665  1  0.28628425  0.54149300  0.31700125  1
  P  P666  1  0.28628425  0.54149300  0.56700125  1
  P  P667  1  0.28628425  0.54149300  0.81700125  1
  P  P668  1  0.28628425  0.79149300  0.06700125  1
  P  P669  1  0.28628425  0.79149300  0.31700125  1
  P  P670  1  0.28628425  0.79149300  0.56700125  1
  P  P671  1  0.28628425  0.79149300  0.81700125  1
  P  P672  1  0.53628425  0.04149300  0.06700125  1
  P  P673  1  0.53628425  0.04149300  0.31700125  1
  P  P674  1  0.53628425  0.04149300  0.56700125  1
  P  P675  1  0.53628425  0.04149300  0.81700125  1
  P  P676  1  0.53628425  0.29149300  0.06700125  1
  P  P677  1  0.53628425  0.29149300  0.31700125  1
  P  P678  1  0.53628425  0.29149300  0.56700125  1
  P  P679  1  0.53628425  0.29149300  0.81700125  1
  P  P680  1  0.53628425  0.54149300  0.06700125  1
  P  P681  1  0.53628425  0.54149300  0.31700125  1
  P  P682  1  0.53628425  0.54149300  0.56700125  1
  P  P683  1  0.53628425  0.54149300  0.81700125  1
  P  P684  1  0.53628425  0.79149300  0.06700125  1
  P  P685  1  0.53628425  0.79149300  0.31700125  1
  P  P686  1  0.53628425  0.79149300  0.56700125  1
  P  P687  1  0.53628425  0.79149300  0.81700125  1
  P  P688  1  0.78628425  0.04149300  0.06700125  1
  P  P689  1  0.78628425  0.04149300  0.31700125  1
  P  P690  1  0.78628425  0.04149300  0.56700125  1
  P  P691  1  0.78628425  0.04149300  0.81700125  1
  P  P692  1  0.78628425  0.29149300  0.06700125  1
  P  P693  1  0.78628425  0.29149300  0.31700125  1
  P  P694  1  0.78628425  0.29149300  0.56700125  1
  P  P695  1  0.78628425  0.29149300  0.81700125  1
  P  P696  1  0.78628425  0.54149300  0.06700125  1
  P  P697  1  0.78628425  0.54149300  0.31700125  1
  P  P698  1  0.78628425  0.54149300  0.56700125  1
  P  P699  1  0.78628425  0.54149300  0.81700125  1
  P  P700  1  0.78628425  0.79149300  0.06700125  1
  P  P701  1  0.78628425  0.79149300  0.31700125  1
  P  P702  1  0.78628425  0.79149300  0.56700125  1
  P  P703  1  0.78628425  0.79149300  0.81700125  1
  P  P704  1  0.21371575  0.20850700  0.18299875  1
  P  P705  1  0.21371575  0.20850700  0.43299875  1
  P  P706  1  0.21371575  0.20850700  0.68299875  1
  P  P707  1  0.21371575  0.20850700  0.93299875  1
  P  P708  1  0.21371575  0.45850700  0.18299875  1
  P  P709  1  0.21371575  0.45850700  0.43299875  1
  P  P710  1  0.21371575  0.45850700  0.68299875  1
  P  P711  1  0.21371575  0.45850700  0.93299875  1
  P  P712  1  0.21371575  0.70850700  0.18299875  1
  P  P713  1  0.21371575  0.70850700  0.43299875  1
  P  P714  1  0.21371575  0.70850700  0.68299875  1
  P  P715  1  0.21371575  0.70850700  0.93299875  1
  P  P716  1  0.21371575  0.95850700  0.18299875  1
  P  P717  1  0.21371575  0.95850700  0.43299875  1
  P  P718  1  0.21371575  0.95850700  0.68299875  1
  P  P719  1  0.21371575  0.95850700  0.93299875  1
  P  P720  1  0.46371575  0.20850700  0.18299875  1
  P  P721  1  0.46371575  0.20850700  0.43299875  1
  P  P722  1  0.46371575  0.20850700  0.68299875  1
  P  P723  1  0.46371575  0.20850700  0.93299875  1
  P  P724  1  0.46371575  0.45850700  0.18299875  1
  P  P725  1  0.46371575  0.45850700  0.43299875  1
  P  P726  1  0.46371575  0.45850700  0.68299875  1
  P  P727  1  0.46371575  0.45850700  0.93299875  1
  P  P728  1  0.46371575  0.70850700  0.18299875  1
  P  P729  1  0.46371575  0.70850700  0.43299875  1
  P  P730  1  0.46371575  0.70850700  0.68299875  1
  P  P731  1  0.46371575  0.70850700  0.93299875  1
  P  P732  1  0.46371575  0.95850700  0.18299875  1
  P  P733  1  0.46371575  0.95850700  0.43299875  1
  P  P734  1  0.46371575  0.95850700  0.68299875  1
  P  P735  1  0.46371575  0.95850700  0.93299875  1
  P  P736  1  0.71371575  0.20850700  0.18299875  1
  P  P737  1  0.71371575  0.20850700  0.43299875  1
  P  P738  1  0.71371575  0.20850700  0.68299875  1
  P  P739  1  0.71371575  0.20850700  0.93299875  1
  P  P740  1  0.71371575  0.45850700  0.18299875  1
  P  P741  1  0.71371575  0.45850700  0.43299875  1
  P  P742  1  0.71371575  0.45850700  0.68299875  1
  P  P743  1  0.71371575  0.45850700  0.93299875  1
  P  P744  1  0.71371575  0.70850700  0.18299875  1
  P  P745  1  0.71371575  0.70850700  0.43299875  1
  P  P746  1  0.71371575  0.70850700  0.68299875  1
  P  P747  1  0.71371575  0.70850700  0.93299875  1
  P  P748  1  0.71371575  0.95850700  0.18299875  1
  P  P749  1  0.71371575  0.95850700  0.43299875  1
  P  P750  1  0.71371575  0.95850700  0.68299875  1
  P  P751  1  0.71371575  0.95850700  0.93299875  1
  P  P752  1  0.96371575  0.20850700  0.18299875  1
  P  P753  1  0.96371575  0.20850700  0.43299875  1
  P  P754  1  0.96371575  0.20850700  0.68299875  1
  P  P755  1  0.96371575  0.20850700  0.93299875  1
  P  P756  1  0.96371575  0.45850700  0.18299875  1
  P  P757  1  0.96371575  0.45850700  0.43299875  1
  P  P758  1  0.96371575  0.45850700  0.68299875  1
  P  P759  1  0.96371575  0.45850700  0.93299875  1
  P  P760  1  0.96371575  0.70850700  0.18299875  1
  P  P761  1  0.96371575  0.70850700  0.43299875  1
  P  P762  1  0.96371575  0.70850700  0.68299875  1
  P  P763  1  0.96371575  0.70850700  0.93299875  1
  P  P764  1  0.96371575  0.95850700  0.18299875  1
  P  P765  1  0.96371575  0.95850700  0.43299875  1
  P  P766  1  0.96371575  0.95850700  0.68299875  1
  P  P767  1  0.96371575  0.95850700  0.93299875  1
  P  P768  1  0.11256250  0.14429750  0.08364275  1
  P  P769  1  0.11256250  0.14429750  0.33364275  1
  P  P770  1  0.11256250  0.14429750  0.58364275  1
  P  P771  1  0.11256250  0.14429750  0.83364275  1
  P  P772  1  0.11256250  0.39429750  0.08364275  1
  P  P773  1  0.11256250  0.39429750  0.33364275  1
  P  P774  1  0.11256250  0.39429750  0.58364275  1
  P  P775  1  0.11256250  0.39429750  0.83364275  1
  P  P776  1  0.11256250  0.64429750  0.08364275  1
  P  P777  1  0.11256250  0.64429750  0.33364275  1
  P  P778  1  0.11256250  0.64429750  0.58364275  1
  P  P779  1  0.11256250  0.64429750  0.83364275  1
  P  P780  1  0.11256250  0.89429750  0.08364275  1
  P  P781  1  0.11256250  0.89429750  0.33364275  1
  P  P782  1  0.11256250  0.89429750  0.58364275  1
  P  P783  1  0.11256250  0.89429750  0.83364275  1
  P  P784  1  0.36256250  0.14429750  0.08364275  1
  P  P785  1  0.36256250  0.14429750  0.33364275  1
  P  P786  1  0.36256250  0.14429750  0.58364275  1
  P  P787  1  0.36256250  0.14429750  0.83364275  1
  P  P788  1  0.36256250  0.39429750  0.08364275  1
  P  P789  1  0.36256250  0.39429750  0.33364275  1
  P  P790  1  0.36256250  0.39429750  0.58364275  1
  P  P791  1  0.36256250  0.39429750  0.83364275  1
  P  P792  1  0.36256250  0.64429750  0.08364275  1
  P  P793  1  0.36256250  0.64429750  0.33364275  1
  P  P794  1  0.36256250  0.64429750  0.58364275  1
  P  P795  1  0.36256250  0.64429750  0.83364275  1
  P  P796  1  0.36256250  0.89429750  0.08364275  1
  P  P797  1  0.36256250  0.89429750  0.33364275  1
  P  P798  1  0.36256250  0.89429750  0.58364275  1
  P  P799  1  0.36256250  0.89429750  0.83364275  1
  P  P800  1  0.61256250  0.14429750  0.08364275  1
  P  P801  1  0.61256250  0.14429750  0.33364275  1
  P  P802  1  0.61256250  0.14429750  0.58364275  1
  P  P803  1  0.61256250  0.14429750  0.83364275  1
  P  P804  1  0.61256250  0.39429750  0.08364275  1
  P  P805  1  0.61256250  0.39429750  0.33364275  1
  P  P806  1  0.61256250  0.39429750  0.58364275  1
  P  P807  1  0.61256250  0.39429750  0.83364275  1
  P  P808  1  0.61256250  0.64429750  0.08364275  1
  P  P809  1  0.61256250  0.64429750  0.33364275  1
  P  P810  1  0.61256250  0.64429750  0.58364275  1
  P  P811  1  0.61256250  0.64429750  0.83364275  1
  P  P812  1  0.61256250  0.89429750  0.08364275  1
  P  P813  1  0.61256250  0.89429750  0.33364275  1
  P  P814  1  0.61256250  0.89429750  0.58364275  1
  P  P815  1  0.61256250  0.89429750  0.83364275  1
  P  P816  1  0.86256250  0.14429750  0.08364275  1
  P  P817  1  0.86256250  0.14429750  0.33364275  1
  P  P818  1  0.86256250  0.14429750  0.58364275  1
  P  P819  1  0.86256250  0.14429750  0.83364275  1
  P  P820  1  0.86256250  0.39429750  0.08364275  1
  P  P821  1  0.86256250  0.39429750  0.33364275  1
  P  P822  1  0.86256250  0.39429750  0.58364275  1
  P  P823  1  0.86256250  0.39429750  0.83364275  1
  P  P824  1  0.86256250  0.64429750  0.08364275  1
  P  P825  1  0.86256250  0.64429750  0.33364275  1
  P  P826  1  0.86256250  0.64429750  0.58364275  1
  P  P827  1  0.86256250  0.64429750  0.83364275  1
  P  P828  1  0.86256250  0.89429750  0.08364275  1
  P  P829  1  0.86256250  0.89429750  0.33364275  1
  P  P830  1  0.86256250  0.89429750  0.58364275  1
  P  P831  1  0.86256250  0.89429750  0.83364275  1
  P  P832  1  0.13743750  0.10570250  0.16635725  1
  P  P833  1  0.13743750  0.10570250  0.41635725  1
  P  P834  1  0.13743750  0.10570250  0.66635725  1
  P  P835  1  0.13743750  0.10570250  0.91635725  1
  P  P836  1  0.13743750  0.35570250  0.16635725  1
  P  P837  1  0.13743750  0.35570250  0.41635725  1
  P  P838  1  0.13743750  0.35570250  0.66635725  1
  P  P839  1  0.13743750  0.35570250  0.91635725  1
  P  P840  1  0.13743750  0.60570250  0.16635725  1
  P  P841  1  0.13743750  0.60570250  0.41635725  1
  P  P842  1  0.13743750  0.60570250  0.66635725  1
  P  P843  1  0.13743750  0.60570250  0.91635725  1
  P  P844  1  0.13743750  0.85570250  0.16635725  1
  P  P845  1  0.13743750  0.85570250  0.41635725  1
  P  P846  1  0.13743750  0.85570250  0.66635725  1
  P  P847  1  0.13743750  0.85570250  0.91635725  1
  P  P848  1  0.38743750  0.10570250  0.16635725  1
  P  P849  1  0.38743750  0.10570250  0.41635725  1
  P  P850  1  0.38743750  0.10570250  0.66635725  1
  P  P851  1  0.38743750  0.10570250  0.91635725  1
  P  P852  1  0.38743750  0.35570250  0.16635725  1
  P  P853  1  0.38743750  0.35570250  0.41635725  1
  P  P854  1  0.38743750  0.35570250  0.66635725  1
  P  P855  1  0.38743750  0.35570250  0.91635725  1
  P  P856  1  0.38743750  0.60570250  0.16635725  1
  P  P857  1  0.38743750  0.60570250  0.41635725  1
  P  P858  1  0.38743750  0.60570250  0.66635725  1
  P  P859  1  0.38743750  0.60570250  0.91635725  1
  P  P860  1  0.38743750  0.85570250  0.16635725  1
  P  P861  1  0.38743750  0.85570250  0.41635725  1
  P  P862  1  0.38743750  0.85570250  0.66635725  1
  P  P863  1  0.38743750  0.85570250  0.91635725  1
  P  P864  1  0.63743750  0.10570250  0.16635725  1
  P  P865  1  0.63743750  0.10570250  0.41635725  1
  P  P866  1  0.63743750  0.10570250  0.66635725  1
  P  P867  1  0.63743750  0.10570250  0.91635725  1
  P  P868  1  0.63743750  0.35570250  0.16635725  1
  P  P869  1  0.63743750  0.35570250  0.41635725  1
  P  P870  1  0.63743750  0.35570250  0.66635725  1
  P  P871  1  0.63743750  0.35570250  0.91635725  1
  P  P872  1  0.63743750  0.60570250  0.16635725  1
  P  P873  1  0.63743750  0.60570250  0.41635725  1
  P  P874  1  0.63743750  0.60570250  0.66635725  1
  P  P875  1  0.63743750  0.60570250  0.91635725  1
  P  P876  1  0.63743750  0.85570250  0.16635725  1
  P  P877  1  0.63743750  0.85570250  0.41635725  1
  P  P878  1  0.63743750  0.85570250  0.66635725  1
  P  P879  1  0.63743750  0.85570250  0.91635725  1
  P  P880  1  0.88743750  0.10570250  0.16635725  1
  P  P881  1  0.88743750  0.10570250  0.41635725  1
  P  P882  1  0.88743750  0.10570250  0.66635725  1
  P  P883  1  0.88743750  0.10570250  0.91635725  1
  P  P884  1  0.88743750  0.35570250  0.16635725  1
  P  P885  1  0.88743750  0.35570250  0.41635725  1
  P  P886  1  0.88743750  0.35570250  0.66635725  1
  P  P887  1  0.88743750  0.35570250  0.91635725  1
  P  P888  1  0.88743750  0.60570250  0.16635725  1
  P  P889  1  0.88743750  0.60570250  0.41635725  1
  P  P890  1  0.88743750  0.60570250  0.66635725  1
  P  P891  1  0.88743750  0.60570250  0.91635725  1
  P  P892  1  0.88743750  0.85570250  0.16635725  1
  P  P893  1  0.88743750  0.85570250  0.41635725  1
  P  P894  1  0.88743750  0.85570250  0.66635725  1
  P  P895  1  0.88743750  0.85570250  0.91635725  1
  P  P896  1  0.13580100  0.10984225  0.05762875  1
  P  P897  1  0.13580100  0.10984225  0.30762875  1
  P  P898  1  0.13580100  0.10984225  0.55762875  1
  P  P899  1  0.13580100  0.10984225  0.80762875  1
  P  P900  1  0.13580100  0.35984225  0.05762875  1
  P  P901  1  0.13580100  0.35984225  0.30762875  1
  P  P902  1  0.13580100  0.35984225  0.55762875  1
  P  P903  1  0.13580100  0.35984225  0.80762875  1
  P  P904  1  0.13580100  0.60984225  0.05762875  1
  P  P905  1  0.13580100  0.60984225  0.30762875  1
  P  P906  1  0.13580100  0.60984225  0.55762875  1
  P  P907  1  0.13580100  0.60984225  0.80762875  1
  P  P908  1  0.13580100  0.85984225  0.05762875  1
  P  P909  1  0.13580100  0.85984225  0.30762875  1
  P  P910  1  0.13580100  0.85984225  0.55762875  1
  P  P911  1  0.13580100  0.85984225  0.80762875  1
  P  P912  1  0.38580100  0.10984225  0.05762875  1
  P  P913  1  0.38580100  0.10984225  0.30762875  1
  P  P914  1  0.38580100  0.10984225  0.55762875  1
  P  P915  1  0.38580100  0.10984225  0.80762875  1
  P  P916  1  0.38580100  0.35984225  0.05762875  1
  P  P917  1  0.38580100  0.35984225  0.30762875  1
  P  P918  1  0.38580100  0.35984225  0.55762875  1
  P  P919  1  0.38580100  0.35984225  0.80762875  1
  P  P920  1  0.38580100  0.60984225  0.05762875  1
  P  P921  1  0.38580100  0.60984225  0.30762875  1
  P  P922  1  0.38580100  0.60984225  0.55762875  1
  P  P923  1  0.38580100  0.60984225  0.80762875  1
  P  P924  1  0.38580100  0.85984225  0.05762875  1
  P  P925  1  0.38580100  0.85984225  0.30762875  1
  P  P926  1  0.38580100  0.85984225  0.55762875  1
  P  P927  1  0.38580100  0.85984225  0.80762875  1
  P  P928  1  0.63580100  0.10984225  0.05762875  1
  P  P929  1  0.63580100  0.10984225  0.30762875  1
  P  P930  1  0.63580100  0.10984225  0.55762875  1
  P  P931  1  0.63580100  0.10984225  0.80762875  1
  P  P932  1  0.63580100  0.35984225  0.05762875  1
  P  P933  1  0.63580100  0.35984225  0.30762875  1
  P  P934  1  0.63580100  0.35984225  0.55762875  1
  P  P935  1  0.63580100  0.35984225  0.80762875  1
  P  P936  1  0.63580100  0.60984225  0.05762875  1
  P  P937  1  0.63580100  0.60984225  0.30762875  1
  P  P938  1  0.63580100  0.60984225  0.55762875  1
  P  P939  1  0.63580100  0.60984225  0.80762875  1
  P  P940  1  0.63580100  0.85984225  0.05762875  1
  P  P941  1  0.63580100  0.85984225  0.30762875  1
  P  P942  1  0.63580100  0.85984225  0.55762875  1
  P  P943  1  0.63580100  0.85984225  0.80762875  1
  P  P944  1  0.88580100  0.10984225  0.05762875  1
  P  P945  1  0.88580100  0.10984225  0.30762875  1
  P  P946  1  0.88580100  0.10984225  0.55762875  1
  P  P947  1  0.88580100  0.10984225  0.80762875  1
  P  P948  1  0.88580100  0.35984225  0.05762875  1
  P  P949  1  0.88580100  0.35984225  0.30762875  1
  P  P950  1  0.88580100  0.35984225  0.55762875  1
  P  P951  1  0.88580100  0.35984225  0.80762875  1
  P  P952  1  0.88580100  0.60984225  0.05762875  1
  P  P953  1  0.88580100  0.60984225  0.30762875  1
  P  P954  1  0.88580100  0.60984225  0.55762875  1
  P  P955  1  0.88580100  0.60984225  0.80762875  1
  P  P956  1  0.88580100  0.85984225  0.05762875  1
  P  P957  1  0.88580100  0.85984225  0.30762875  1
  P  P958  1  0.88580100  0.85984225  0.55762875  1
  P  P959  1  0.88580100  0.85984225  0.80762875  1
  P  P960  1  0.11419900  0.14015775  0.19237125  1
  P  P961  1  0.11419900  0.14015775  0.44237125  1
  P  P962  1  0.11419900  0.14015775  0.69237125  1
  P  P963  1  0.11419900  0.14015775  0.94237125  1
  P  P964  1  0.11419900  0.39015775  0.19237125  1
  P  P965  1  0.11419900  0.39015775  0.44237125  1
  P  P966  1  0.11419900  0.39015775  0.69237125  1
  P  P967  1  0.11419900  0.39015775  0.94237125  1
  P  P968  1  0.11419900  0.64015775  0.19237125  1
  P  P969  1  0.11419900  0.64015775  0.44237125  1
  P  P970  1  0.11419900  0.64015775  0.69237125  1
  P  P971  1  0.11419900  0.64015775  0.94237125  1
  P  P972  1  0.11419900  0.89015775  0.19237125  1
  P  P973  1  0.11419900  0.89015775  0.44237125  1
  P  P974  1  0.11419900  0.89015775  0.69237125  1
  P  P975  1  0.11419900  0.89015775  0.94237125  1
  P  P976  1  0.36419900  0.14015775  0.19237125  1
  P  P977  1  0.36419900  0.14015775  0.44237125  1
  P  P978  1  0.36419900  0.14015775  0.69237125  1
  P  P979  1  0.36419900  0.14015775  0.94237125  1
  P  P980  1  0.36419900  0.39015775  0.19237125  1
  P  P981  1  0.36419900  0.39015775  0.44237125  1
  P  P982  1  0.36419900  0.39015775  0.69237125  1
  P  P983  1  0.36419900  0.39015775  0.94237125  1
  P  P984  1  0.36419900  0.64015775  0.19237125  1
  P  P985  1  0.36419900  0.64015775  0.44237125  1
  P  P986  1  0.36419900  0.64015775  0.69237125  1
  P  P987  1  0.36419900  0.64015775  0.94237125  1
  P  P988  1  0.36419900  0.89015775  0.19237125  1
  P  P989  1  0.36419900  0.89015775  0.44237125  1
  P  P990  1  0.36419900  0.89015775  0.69237125  1
  P  P991  1  0.36419900  0.89015775  0.94237125  1
  P  P992  1  0.61419900  0.14015775  0.19237125  1
  P  P993  1  0.61419900  0.14015775  0.44237125  1
  P  P994  1  0.61419900  0.14015775  0.69237125  1
  P  P995  1  0.61419900  0.14015775  0.94237125  1
  P  P996  1  0.61419900  0.39015775  0.19237125  1
  P  P997  1  0.61419900  0.39015775  0.44237125  1
  P  P998  1  0.61419900  0.39015775  0.69237125  1
  P  P999  1  0.61419900  0.39015775  0.94237125  1
  P  P1000  1  0.61419900  0.64015775  0.19237125  1
  P  P1001  1  0.61419900  0.64015775  0.44237125  1
  P  P1002  1  0.61419900  0.64015775  0.69237125  1
  P  P1003  1  0.61419900  0.64015775  0.94237125  1
  P  P1004  1  0.61419900  0.89015775  0.19237125  1
  P  P1005  1  0.61419900  0.89015775  0.44237125  1
  P  P1006  1  0.61419900  0.89015775  0.69237125  1
  P  P1007  1  0.61419900  0.89015775  0.94237125  1
  P  P1008  1  0.86419900  0.14015775  0.19237125  1
  P  P1009  1  0.86419900  0.14015775  0.44237125  1
  P  P1010  1  0.86419900  0.14015775  0.69237125  1
  P  P1011  1  0.86419900  0.14015775  0.94237125  1
  P  P1012  1  0.86419900  0.39015775  0.19237125  1
  P  P1013  1  0.86419900  0.39015775  0.44237125  1
  P  P1014  1  0.86419900  0.39015775  0.69237125  1
  P  P1015  1  0.86419900  0.39015775  0.94237125  1
  P  P1016  1  0.86419900  0.64015775  0.19237125  1
  P  P1017  1  0.86419900  0.64015775  0.44237125  1
  P  P1018  1  0.86419900  0.64015775  0.69237125  1
  P  P1019  1  0.86419900  0.64015775  0.94237125  1
  P  P1020  1  0.86419900  0.89015775  0.19237125  1
  P  P1021  1  0.86419900  0.89015775  0.44237125  1
  P  P1022  1  0.86419900  0.89015775  0.69237125  1
  P  P1023  1  0.86419900  0.89015775  0.94237125  1
  P  P1024  1  0.06959550  0.09478075  0.05204675  1
  P  P1025  1  0.06959550  0.09478075  0.30204675  1
  P  P1026  1  0.06959550  0.09478075  0.55204675  1
  P  P1027  1  0.06959550  0.09478075  0.80204675  1
  P  P1028  1  0.06959550  0.34478075  0.05204675  1
  P  P1029  1  0.06959550  0.34478075  0.30204675  1
  P  P1030  1  0.06959550  0.34478075  0.55204675  1
  P  P1031  1  0.06959550  0.34478075  0.80204675  1
  P  P1032  1  0.06959550  0.59478075  0.05204675  1
  P  P1033  1  0.06959550  0.59478075  0.30204675  1
  P  P1034  1  0.06959550  0.59478075  0.55204675  1
  P  P1035  1  0.06959550  0.59478075  0.80204675  1
  P  P1036  1  0.06959550  0.84478075  0.05204675  1
  P  P1037  1  0.06959550  0.84478075  0.30204675  1
  P  P1038  1  0.06959550  0.84478075  0.55204675  1
  P  P1039  1  0.06959550  0.84478075  0.80204675  1
  P  P1040  1  0.31959550  0.09478075  0.05204675  1
  P  P1041  1  0.31959550  0.09478075  0.30204675  1
  P  P1042  1  0.31959550  0.09478075  0.55204675  1
  P  P1043  1  0.31959550  0.09478075  0.80204675  1
  P  P1044  1  0.31959550  0.34478075  0.05204675  1
  P  P1045  1  0.31959550  0.34478075  0.30204675  1
  P  P1046  1  0.31959550  0.34478075  0.55204675  1
  P  P1047  1  0.31959550  0.34478075  0.80204675  1
  P  P1048  1  0.31959550  0.59478075  0.05204675  1
  P  P1049  1  0.31959550  0.59478075  0.30204675  1
  P  P1050  1  0.31959550  0.59478075  0.55204675  1
  P  P1051  1  0.31959550  0.59478075  0.80204675  1
  P  P1052  1  0.31959550  0.84478075  0.05204675  1
  P  P1053  1  0.31959550  0.84478075  0.30204675  1
  P  P1054  1  0.31959550  0.84478075  0.55204675  1
  P  P1055  1  0.31959550  0.84478075  0.80204675  1
  P  P1056  1  0.56959550  0.09478075  0.05204675  1
  P  P1057  1  0.56959550  0.09478075  0.30204675  1
  P  P1058  1  0.56959550  0.09478075  0.55204675  1
  P  P1059  1  0.56959550  0.09478075  0.80204675  1
  P  P1060  1  0.56959550  0.34478075  0.05204675  1
  P  P1061  1  0.56959550  0.34478075  0.30204675  1
  P  P1062  1  0.56959550  0.34478075  0.55204675  1
  P  P1063  1  0.56959550  0.34478075  0.80204675  1
  P  P1064  1  0.56959550  0.59478075  0.05204675  1
  P  P1065  1  0.56959550  0.59478075  0.30204675  1
  P  P1066  1  0.56959550  0.59478075  0.55204675  1
  P  P1067  1  0.56959550  0.59478075  0.80204675  1
  P  P1068  1  0.56959550  0.84478075  0.05204675  1
  P  P1069  1  0.56959550  0.84478075  0.30204675  1
  P  P1070  1  0.56959550  0.84478075  0.55204675  1
  P  P1071  1  0.56959550  0.84478075  0.80204675  1
  P  P1072  1  0.81959550  0.09478075  0.05204675  1
  P  P1073  1  0.81959550  0.09478075  0.30204675  1
  P  P1074  1  0.81959550  0.09478075  0.55204675  1
  P  P1075  1  0.81959550  0.09478075  0.80204675  1
  P  P1076  1  0.81959550  0.34478075  0.05204675  1
  P  P1077  1  0.81959550  0.34478075  0.30204675  1
  P  P1078  1  0.81959550  0.34478075  0.55204675  1
  P  P1079  1  0.81959550  0.34478075  0.80204675  1
  P  P1080  1  0.81959550  0.59478075  0.05204675  1
  P  P1081  1  0.81959550  0.59478075  0.30204675  1
  P  P1082  1  0.81959550  0.59478075  0.55204675  1
  P  P1083  1  0.81959550  0.59478075  0.80204675  1
  P  P1084  1  0.81959550  0.84478075  0.05204675  1
  P  P1085  1  0.81959550  0.84478075  0.30204675  1
  P  P1086  1  0.81959550  0.84478075  0.55204675  1
  P  P1087  1  0.81959550  0.84478075  0.80204675  1
  P  P1088  1  0.18040450  0.15521925  0.19795325  1
  P  P1089  1  0.18040450  0.15521925  0.44795325  1
  P  P1090  1  0.18040450  0.15521925  0.69795325  1
  P  P1091  1  0.18040450  0.15521925  0.94795325  1
  P  P1092  1  0.18040450  0.40521925  0.19795325  1
  P  P1093  1  0.18040450  0.40521925  0.44795325  1
  P  P1094  1  0.18040450  0.40521925  0.69795325  1
  P  P1095  1  0.18040450  0.40521925  0.94795325  1
  P  P1096  1  0.18040450  0.65521925  0.19795325  1
  P  P1097  1  0.18040450  0.65521925  0.44795325  1
  P  P1098  1  0.18040450  0.65521925  0.69795325  1
  P  P1099  1  0.18040450  0.65521925  0.94795325  1
  P  P1100  1  0.18040450  0.90521925  0.19795325  1
  P  P1101  1  0.18040450  0.90521925  0.44795325  1
  P  P1102  1  0.18040450  0.90521925  0.69795325  1
  P  P1103  1  0.18040450  0.90521925  0.94795325  1
  P  P1104  1  0.43040450  0.15521925  0.19795325  1
  P  P1105  1  0.43040450  0.15521925  0.44795325  1
  P  P1106  1  0.43040450  0.15521925  0.69795325  1
  P  P1107  1  0.43040450  0.15521925  0.94795325  1
  P  P1108  1  0.43040450  0.40521925  0.19795325  1
  P  P1109  1  0.43040450  0.40521925  0.44795325  1
  P  P1110  1  0.43040450  0.40521925  0.69795325  1
  P  P1111  1  0.43040450  0.40521925  0.94795325  1
  P  P1112  1  0.43040450  0.65521925  0.19795325  1
  P  P1113  1  0.43040450  0.65521925  0.44795325  1
  P  P1114  1  0.43040450  0.65521925  0.69795325  1
  P  P1115  1  0.43040450  0.65521925  0.94795325  1
  P  P1116  1  0.43040450  0.90521925  0.19795325  1
  P  P1117  1  0.43040450  0.90521925  0.44795325  1
  P  P1118  1  0.43040450  0.90521925  0.69795325  1
  P  P1119  1  0.43040450  0.90521925  0.94795325  1
  P  P1120  1  0.68040450  0.15521925  0.19795325  1
  P  P1121  1  0.68040450  0.15521925  0.44795325  1
  P  P1122  1  0.68040450  0.15521925  0.69795325  1
  P  P1123  1  0.68040450  0.15521925  0.94795325  1
  P  P1124  1  0.68040450  0.40521925  0.19795325  1
  P  P1125  1  0.68040450  0.40521925  0.44795325  1
  P  P1126  1  0.68040450  0.40521925  0.69795325  1
  P  P1127  1  0.68040450  0.40521925  0.94795325  1
  P  P1128  1  0.68040450  0.65521925  0.19795325  1
  P  P1129  1  0.68040450  0.65521925  0.44795325  1
  P  P1130  1  0.68040450  0.65521925  0.69795325  1
  P  P1131  1  0.68040450  0.65521925  0.94795325  1
  P  P1132  1  0.68040450  0.90521925  0.19795325  1
  P  P1133  1  0.68040450  0.90521925  0.44795325  1
  P  P1134  1  0.68040450  0.90521925  0.69795325  1
  P  P1135  1  0.68040450  0.90521925  0.94795325  1
  P  P1136  1  0.93040450  0.15521925  0.19795325  1
  P  P1137  1  0.93040450  0.15521925  0.44795325  1
  P  P1138  1  0.93040450  0.15521925  0.69795325  1
  P  P1139  1  0.93040450  0.15521925  0.94795325  1
  P  P1140  1  0.93040450  0.40521925  0.19795325  1
  P  P1141  1  0.93040450  0.40521925  0.44795325  1
  P  P1142  1  0.93040450  0.40521925  0.69795325  1
  P  P1143  1  0.93040450  0.40521925  0.94795325  1
  P  P1144  1  0.93040450  0.65521925  0.19795325  1
  P  P1145  1  0.93040450  0.65521925  0.44795325  1
  P  P1146  1  0.93040450  0.65521925  0.69795325  1
  P  P1147  1  0.93040450  0.65521925  0.94795325  1
  P  P1148  1  0.93040450  0.90521925  0.19795325  1
  P  P1149  1  0.93040450  0.90521925  0.44795325  1
  P  P1150  1  0.93040450  0.90521925  0.69795325  1
  P  P1151  1  0.93040450  0.90521925  0.94795325  1
  H  H1152  1  0.08702575  0.17398300  0.00760100  1
  H  H1153  1  0.08702575  0.17398300  0.25760100  1
  H  H1154  1  0.08702575  0.17398300  0.50760100  1
  H  H1155  1  0.08702575  0.17398300  0.75760100  1
  H  H1156  1  0.08702575  0.42398300  0.00760100  1
  H  H1157  1  0.08702575  0.42398300  0.25760100  1
  H  H1158  1  0.08702575  0.42398300  0.50760100  1
  H  H1159  1  0.08702575  0.42398300  0.75760100  1
  H  H1160  1  0.08702575  0.67398300  0.00760100  1
  H  H1161  1  0.08702575  0.67398300  0.25760100  1
  H  H1162  1  0.08702575  0.67398300  0.50760100  1
  H  H1163  1  0.08702575  0.67398300  0.75760100  1
  H  H1164  1  0.08702575  0.92398300  0.00760100  1
  H  H1165  1  0.08702575  0.92398300  0.25760100  1
  H  H1166  1  0.08702575  0.92398300  0.50760100  1
  H  H1167  1  0.08702575  0.92398300  0.75760100  1
  H  H1168  1  0.33702575  0.17398300  0.00760100  1
  H  H1169  1  0.33702575  0.17398300  0.25760100  1
  H  H1170  1  0.33702575  0.17398300  0.50760100  1
  H  H1171  1  0.33702575  0.17398300  0.75760100  1
  H  H1172  1  0.33702575  0.42398300  0.00760100  1
  H  H1173  1  0.33702575  0.42398300  0.25760100  1
  H  H1174  1  0.33702575  0.42398300  0.50760100  1
  H  H1175  1  0.33702575  0.42398300  0.75760100  1
  H  H1176  1  0.33702575  0.67398300  0.00760100  1
  H  H1177  1  0.33702575  0.67398300  0.25760100  1
  H  H1178  1  0.33702575  0.67398300  0.50760100  1
  H  H1179  1  0.33702575  0.67398300  0.75760100  1
  H  H1180  1  0.33702575  0.92398300  0.00760100  1
  H  H1181  1  0.33702575  0.92398300  0.25760100  1
  H  H1182  1  0.33702575  0.92398300  0.50760100  1
  H  H1183  1  0.33702575  0.92398300  0.75760100  1
  H  H1184  1  0.58702575  0.17398300  0.00760100  1
  H  H1185  1  0.58702575  0.17398300  0.25760100  1
  H  H1186  1  0.58702575  0.17398300  0.50760100  1
  H  H1187  1  0.58702575  0.17398300  0.75760100  1
  H  H1188  1  0.58702575  0.42398300  0.00760100  1
  H  H1189  1  0.58702575  0.42398300  0.25760100  1
  H  H1190  1  0.58702575  0.42398300  0.50760100  1
  H  H1191  1  0.58702575  0.42398300  0.75760100  1
  H  H1192  1  0.58702575  0.67398300  0.00760100  1
  H  H1193  1  0.58702575  0.67398300  0.25760100  1
  H  H1194  1  0.58702575  0.67398300  0.50760100  1
  H  H1195  1  0.58702575  0.67398300  0.75760100  1
  H  H1196  1  0.58702575  0.92398300  0.00760100  1
  H  H1197  1  0.58702575  0.92398300  0.25760100  1
  H  H1198  1  0.58702575  0.92398300  0.50760100  1
  H  H1199  1  0.58702575  0.92398300  0.75760100  1
  H  H1200  1  0.83702575  0.17398300  0.00760100  1
  H  H1201  1  0.83702575  0.17398300  0.25760100  1
  H  H1202  1  0.83702575  0.17398300  0.50760100  1
  H  H1203  1  0.83702575  0.17398300  0.75760100  1
  H  H1204  1  0.83702575  0.42398300  0.00760100  1
  H  H1205  1  0.83702575  0.42398300  0.25760100  1
  H  H1206  1  0.83702575  0.42398300  0.50760100  1
  H  H1207  1  0.83702575  0.42398300  0.75760100  1
  H  H1208  1  0.83702575  0.67398300  0.00760100  1
  H  H1209  1  0.83702575  0.67398300  0.25760100  1
  H  H1210  1  0.83702575  0.67398300  0.50760100  1
  H  H1211  1  0.83702575  0.67398300  0.75760100  1
  H  H1212  1  0.83702575  0.92398300  0.00760100  1
  H  H1213  1  0.83702575  0.92398300  0.25760100  1
  H  H1214  1  0.83702575  0.92398300  0.50760100  1
  H  H1215  1  0.83702575  0.92398300  0.75760100  1
  H  H1216  1  0.16297425  0.07601700  0.24239900  1
  H  H1217  1  0.16297425  0.07601700  0.49239900  1
  H  H1218  1  0.16297425  0.07601700  0.74239900  1
  H  H1219  1  0.16297425  0.07601700  0.99239900  1
  H  H1220  1  0.16297425  0.32601700  0.24239900  1
  H  H1221  1  0.16297425  0.32601700  0.49239900  1
  H  H1222  1  0.16297425  0.32601700  0.74239900  1
  H  H1223  1  0.16297425  0.32601700  0.99239900  1
  H  H1224  1  0.16297425  0.57601700  0.24239900  1
  H  H1225  1  0.16297425  0.57601700  0.49239900  1
  H  H1226  1  0.16297425  0.57601700  0.74239900  1
  H  H1227  1  0.16297425  0.57601700  0.99239900  1
  H  H1228  1  0.16297425  0.82601700  0.24239900  1
  H  H1229  1  0.16297425  0.82601700  0.49239900  1
  H  H1230  1  0.16297425  0.82601700  0.74239900  1
  H  H1231  1  0.16297425  0.82601700  0.99239900  1
  H  H1232  1  0.41297425  0.07601700  0.24239900  1
  H  H1233  1  0.41297425  0.07601700  0.49239900  1
  H  H1234  1  0.41297425  0.07601700  0.74239900  1
  H  H1235  1  0.41297425  0.07601700  0.99239900  1
  H  H1236  1  0.41297425  0.32601700  0.24239900  1
  H  H1237  1  0.41297425  0.32601700  0.49239900  1
  H  H1238  1  0.41297425  0.32601700  0.74239900  1
  H  H1239  1  0.41297425  0.32601700  0.99239900  1
  H  H1240  1  0.41297425  0.57601700  0.24239900  1
  H  H1241  1  0.41297425  0.57601700  0.49239900  1
  H  H1242  1  0.41297425  0.57601700  0.74239900  1
  H  H1243  1  0.41297425  0.57601700  0.99239900  1
  H  H1244  1  0.41297425  0.82601700  0.24239900  1
  H  H1245  1  0.41297425  0.82601700  0.49239900  1
  H  H1246  1  0.41297425  0.82601700  0.74239900  1
  H  H1247  1  0.41297425  0.82601700  0.99239900  1
  H  H1248  1  0.66297425  0.07601700  0.24239900  1
  H  H1249  1  0.66297425  0.07601700  0.49239900  1
  H  H1250  1  0.66297425  0.07601700  0.74239900  1
  H  H1251  1  0.66297425  0.07601700  0.99239900  1
  H  H1252  1  0.66297425  0.32601700  0.24239900  1
  H  H1253  1  0.66297425  0.32601700  0.49239900  1
  H  H1254  1  0.66297425  0.32601700  0.74239900  1
  H  H1255  1  0.66297425  0.32601700  0.99239900  1
  H  H1256  1  0.66297425  0.57601700  0.24239900  1
  H  H1257  1  0.66297425  0.57601700  0.49239900  1
  H  H1258  1  0.66297425  0.57601700  0.74239900  1
  H  H1259  1  0.66297425  0.57601700  0.99239900  1
  H  H1260  1  0.66297425  0.82601700  0.24239900  1
  H  H1261  1  0.66297425  0.82601700  0.49239900  1
  H  H1262  1  0.66297425  0.82601700  0.74239900  1
  H  H1263  1  0.66297425  0.82601700  0.99239900  1
  H  H1264  1  0.91297425  0.07601700  0.24239900  1
  H  H1265  1  0.91297425  0.07601700  0.49239900  1
  H  H1266  1  0.91297425  0.07601700  0.74239900  1
  H  H1267  1  0.91297425  0.07601700  0.99239900  1
  H  H1268  1  0.91297425  0.32601700  0.24239900  1
  H  H1269  1  0.91297425  0.32601700  0.49239900  1
  H  H1270  1  0.91297425  0.32601700  0.74239900  1
  H  H1271  1  0.91297425  0.32601700  0.99239900  1
  H  H1272  1  0.91297425  0.57601700  0.24239900  1
  H  H1273  1  0.91297425  0.57601700  0.49239900  1
  H  H1274  1  0.91297425  0.57601700  0.74239900  1
  H  H1275  1  0.91297425  0.57601700  0.99239900  1
  H  H1276  1  0.91297425  0.82601700  0.24239900  1
  H  H1277  1  0.91297425  0.82601700  0.49239900  1
  H  H1278  1  0.91297425  0.82601700  0.74239900  1
  H  H1279  1  0.91297425  0.82601700  0.99239900  1
  H  H1280  1  0.10717600  0.15007850  0.24139525  1
  H  H1281  1  0.10717600  0.15007850  0.49139525  1
  H  H1282  1  0.10717600  0.15007850  0.74139525  1
  H  H1283  1  0.10717600  0.15007850  0.99139525  1
  H  H1284  1  0.10717600  0.40007850  0.24139525  1
  H  H1285  1  0.10717600  0.40007850  0.49139525  1
  H  H1286  1  0.10717600  0.40007850  0.74139525  1
  H  H1287  1  0.10717600  0.40007850  0.99139525  1
  H  H1288  1  0.10717600  0.65007850  0.24139525  1
  H  H1289  1  0.10717600  0.65007850  0.49139525  1
  H  H1290  1  0.10717600  0.65007850  0.74139525  1
  H  H1291  1  0.10717600  0.65007850  0.99139525  1
  H  H1292  1  0.10717600  0.90007850  0.24139525  1
  H  H1293  1  0.10717600  0.90007850  0.49139525  1
  H  H1294  1  0.10717600  0.90007850  0.74139525  1
  H  H1295  1  0.10717600  0.90007850  0.99139525  1
  H  H1296  1  0.35717600  0.15007850  0.24139525  1
  H  H1297  1  0.35717600  0.15007850  0.49139525  1
  H  H1298  1  0.35717600  0.15007850  0.74139525  1
  H  H1299  1  0.35717600  0.15007850  0.99139525  1
  H  H1300  1  0.35717600  0.40007850  0.24139525  1
  H  H1301  1  0.35717600  0.40007850  0.49139525  1
  H  H1302  1  0.35717600  0.40007850  0.74139525  1
  H  H1303  1  0.35717600  0.40007850  0.99139525  1
  H  H1304  1  0.35717600  0.65007850  0.24139525  1
  H  H1305  1  0.35717600  0.65007850  0.49139525  1
  H  H1306  1  0.35717600  0.65007850  0.74139525  1
  H  H1307  1  0.35717600  0.65007850  0.99139525  1
  H  H1308  1  0.35717600  0.90007850  0.24139525  1
  H  H1309  1  0.35717600  0.90007850  0.49139525  1
  H  H1310  1  0.35717600  0.90007850  0.74139525  1
  H  H1311  1  0.35717600  0.90007850  0.99139525  1
  H  H1312  1  0.60717600  0.15007850  0.24139525  1
  H  H1313  1  0.60717600  0.15007850  0.49139525  1
  H  H1314  1  0.60717600  0.15007850  0.74139525  1
  H  H1315  1  0.60717600  0.15007850  0.99139525  1
  H  H1316  1  0.60717600  0.40007850  0.24139525  1
  H  H1317  1  0.60717600  0.40007850  0.49139525  1
  H  H1318  1  0.60717600  0.40007850  0.74139525  1
  H  H1319  1  0.60717600  0.40007850  0.99139525  1
  H  H1320  1  0.60717600  0.65007850  0.24139525  1
  H  H1321  1  0.60717600  0.65007850  0.49139525  1
  H  H1322  1  0.60717600  0.65007850  0.74139525  1
  H  H1323  1  0.60717600  0.65007850  0.99139525  1
  H  H1324  1  0.60717600  0.90007850  0.24139525  1
  H  H1325  1  0.60717600  0.90007850  0.49139525  1
  H  H1326  1  0.60717600  0.90007850  0.74139525  1
  H  H1327  1  0.60717600  0.90007850  0.99139525  1
  H  H1328  1  0.85717600  0.15007850  0.24139525  1
  H  H1329  1  0.85717600  0.15007850  0.49139525  1
  H  H1330  1  0.85717600  0.15007850  0.74139525  1
  H  H1331  1  0.85717600  0.15007850  0.99139525  1
  H  H1332  1  0.85717600  0.40007850  0.24139525  1
  H  H1333  1  0.85717600  0.40007850  0.49139525  1
  H  H1334  1  0.85717600  0.40007850  0.74139525  1
  H  H1335  1  0.85717600  0.40007850  0.99139525  1
  H  H1336  1  0.85717600  0.65007850  0.24139525  1
  H  H1337  1  0.85717600  0.65007850  0.49139525  1
  H  H1338  1  0.85717600  0.65007850  0.74139525  1
  H  H1339  1  0.85717600  0.65007850  0.99139525  1
  H  H1340  1  0.85717600  0.90007850  0.24139525  1
  H  H1341  1  0.85717600  0.90007850  0.49139525  1
  H  H1342  1  0.85717600  0.90007850  0.74139525  1
  H  H1343  1  0.85717600  0.90007850  0.99139525  1
  H  H1344  1  0.14282400  0.09992150  0.00860475  1
  H  H1345  1  0.14282400  0.09992150  0.25860475  1
  H  H1346  1  0.14282400  0.09992150  0.50860475  1
  H  H1347  1  0.14282400  0.09992150  0.75860475  1
  H  H1348  1  0.14282400  0.34992150  0.00860475  1
  H  H1349  1  0.14282400  0.34992150  0.25860475  1
  H  H1350  1  0.14282400  0.34992150  0.50860475  1
  H  H1351  1  0.14282400  0.34992150  0.75860475  1
  H  H1352  1  0.14282400  0.59992150  0.00860475  1
  H  H1353  1  0.14282400  0.59992150  0.25860475  1
  H  H1354  1  0.14282400  0.59992150  0.50860475  1
  H  H1355  1  0.14282400  0.59992150  0.75860475  1
  H  H1356  1  0.14282400  0.84992150  0.00860475  1
  H  H1357  1  0.14282400  0.84992150  0.25860475  1
  H  H1358  1  0.14282400  0.84992150  0.50860475  1
  H  H1359  1  0.14282400  0.84992150  0.75860475  1
  H  H1360  1  0.39282400  0.09992150  0.00860475  1
  H  H1361  1  0.39282400  0.09992150  0.25860475  1
  H  H1362  1  0.39282400  0.09992150  0.50860475  1
  H  H1363  1  0.39282400  0.09992150  0.75860475  1
  H  H1364  1  0.39282400  0.34992150  0.00860475  1
  H  H1365  1  0.39282400  0.34992150  0.25860475  1
  H  H1366  1  0.39282400  0.34992150  0.50860475  1
  H  H1367  1  0.39282400  0.34992150  0.75860475  1
  H  H1368  1  0.39282400  0.59992150  0.00860475  1
  H  H1369  1  0.39282400  0.59992150  0.25860475  1
  H  H1370  1  0.39282400  0.59992150  0.50860475  1
  H  H1371  1  0.39282400  0.59992150  0.75860475  1
  H  H1372  1  0.39282400  0.84992150  0.00860475  1
  H  H1373  1  0.39282400  0.84992150  0.25860475  1
  H  H1374  1  0.39282400  0.84992150  0.50860475  1
  H  H1375  1  0.39282400  0.84992150  0.75860475  1
  H  H1376  1  0.64282400  0.09992150  0.00860475  1
  H  H1377  1  0.64282400  0.09992150  0.25860475  1
  H  H1378  1  0.64282400  0.09992150  0.50860475  1
  H  H1379  1  0.64282400  0.09992150  0.75860475  1
  H  H1380  1  0.64282400  0.34992150  0.00860475  1
  H  H1381  1  0.64282400  0.34992150  0.25860475  1
  H  H1382  1  0.64282400  0.34992150  0.50860475  1
  H  H1383  1  0.64282400  0.34992150  0.75860475  1
  H  H1384  1  0.64282400  0.59992150  0.00860475  1
  H  H1385  1  0.64282400  0.59992150  0.25860475  1
  H  H1386  1  0.64282400  0.59992150  0.50860475  1
  H  H1387  1  0.64282400  0.59992150  0.75860475  1
  H  H1388  1  0.64282400  0.84992150  0.00860475  1
  H  H1389  1  0.64282400  0.84992150  0.25860475  1
  H  H1390  1  0.64282400  0.84992150  0.50860475  1
  H  H1391  1  0.64282400  0.84992150  0.75860475  1
  H  H1392  1  0.89282400  0.09992150  0.00860475  1
  H  H1393  1  0.89282400  0.09992150  0.25860475  1
  H  H1394  1  0.89282400  0.09992150  0.50860475  1
  H  H1395  1  0.89282400  0.09992150  0.75860475  1
  H  H1396  1  0.89282400  0.34992150  0.00860475  1
  H  H1397  1  0.89282400  0.34992150  0.25860475  1
  H  H1398  1  0.89282400  0.34992150  0.50860475  1
  H  H1399  1  0.89282400  0.34992150  0.75860475  1
  H  H1400  1  0.89282400  0.59992150  0.00860475  1
  H  H1401  1  0.89282400  0.59992150  0.25860475  1
  H  H1402  1  0.89282400  0.59992150  0.50860475  1
  H  H1403  1  0.89282400  0.59992150  0.75860475  1
  H  H1404  1  0.89282400  0.84992150  0.00860475  1
  H  H1405  1  0.89282400  0.84992150  0.25860475  1
  H  H1406  1  0.89282400  0.84992150  0.50860475  1
  H  H1407  1  0.89282400  0.84992150  0.75860475  1
  H  H1408  1  0.10104100  0.14640250  0.02080000  1
  H  H1409  1  0.10104100  0.14640250  0.27080000  1
  H  H1410  1  0.10104100  0.14640250  0.52080000  1
  H  H1411  1  0.10104100  0.14640250  0.77080000  1
  H  H1412  1  0.10104100  0.39640250  0.02080000  1
  H  H1413  1  0.10104100  0.39640250  0.27080000  1
  H  H1414  1  0.10104100  0.39640250  0.52080000  1
  H  H1415  1  0.10104100  0.39640250  0.77080000  1
  H  H1416  1  0.10104100  0.64640250  0.02080000  1
  H  H1417  1  0.10104100  0.64640250  0.27080000  1
  H  H1418  1  0.10104100  0.64640250  0.52080000  1
  H  H1419  1  0.10104100  0.64640250  0.77080000  1
  H  H1420  1  0.10104100  0.89640250  0.02080000  1
  H  H1421  1  0.10104100  0.89640250  0.27080000  1
  H  H1422  1  0.10104100  0.89640250  0.52080000  1
  H  H1423  1  0.10104100  0.89640250  0.77080000  1
  H  H1424  1  0.35104100  0.14640250  0.02080000  1
  H  H1425  1  0.35104100  0.14640250  0.27080000  1
  H  H1426  1  0.35104100  0.14640250  0.52080000  1
  H  H1427  1  0.35104100  0.14640250  0.77080000  1
  H  H1428  1  0.35104100  0.39640250  0.02080000  1
  H  H1429  1  0.35104100  0.39640250  0.27080000  1
  H  H1430  1  0.35104100  0.39640250  0.52080000  1
  H  H1431  1  0.35104100  0.39640250  0.77080000  1
  H  H1432  1  0.35104100  0.64640250  0.02080000  1
  H  H1433  1  0.35104100  0.64640250  0.27080000  1
  H  H1434  1  0.35104100  0.64640250  0.52080000  1
  H  H1435  1  0.35104100  0.64640250  0.77080000  1
  H  H1436  1  0.35104100  0.89640250  0.02080000  1
  H  H1437  1  0.35104100  0.89640250  0.27080000  1
  H  H1438  1  0.35104100  0.89640250  0.52080000  1
  H  H1439  1  0.35104100  0.89640250  0.77080000  1
  H  H1440  1  0.60104100  0.14640250  0.02080000  1
  H  H1441  1  0.60104100  0.14640250  0.27080000  1
  H  H1442  1  0.60104100  0.14640250  0.52080000  1
  H  H1443  1  0.60104100  0.14640250  0.77080000  1
  H  H1444  1  0.60104100  0.39640250  0.02080000  1
  H  H1445  1  0.60104100  0.39640250  0.27080000  1
  H  H1446  1  0.60104100  0.39640250  0.52080000  1
  H  H1447  1  0.60104100  0.39640250  0.77080000  1
  H  H1448  1  0.60104100  0.64640250  0.02080000  1
  H  H1449  1  0.60104100  0.64640250  0.27080000  1
  H  H1450  1  0.60104100  0.64640250  0.52080000  1
  H  H1451  1  0.60104100  0.64640250  0.77080000  1
  H  H1452  1  0.60104100  0.89640250  0.02080000  1
  H  H1453  1  0.60104100  0.89640250  0.27080000  1
  H  H1454  1  0.60104100  0.89640250  0.52080000  1
  H  H1455  1  0.60104100  0.89640250  0.77080000  1
  H  H1456  1  0.85104100  0.14640250  0.02080000  1
  H  H1457  1  0.85104100  0.14640250  0.27080000  1
  H  H1458  1  0.85104100  0.14640250  0.52080000  1
  H  H1459  1  0.85104100  0.14640250  0.77080000  1
  H  H1460  1  0.85104100  0.39640250  0.02080000  1
  H  H1461  1  0.85104100  0.39640250  0.27080000  1
  H  H1462  1  0.85104100  0.39640250  0.52080000  1
  H  H1463  1  0.85104100  0.39640250  0.77080000  1
  H  H1464  1  0.85104100  0.64640250  0.02080000  1
  H  H1465  1  0.85104100  0.64640250  0.27080000  1
  H  H1466  1  0.85104100  0.64640250  0.52080000  1
  H  H1467  1  0.85104100  0.64640250  0.77080000  1
  H  H1468  1  0.85104100  0.89640250  0.02080000  1
  H  H1469  1  0.85104100  0.89640250  0.27080000  1
  H  H1470  1  0.85104100  0.89640250  0.52080000  1
  H  H1471  1  0.85104100  0.89640250  0.77080000  1
  H  H1472  1  0.14895900  0.10359750  0.22920000  1
  H  H1473  1  0.14895900  0.10359750  0.47920000  1
  H  H1474  1  0.14895900  0.10359750  0.72920000  1
  H  H1475  1  0.14895900  0.10359750  0.97920000  1
  H  H1476  1  0.14895900  0.35359750  0.22920000  1
  H  H1477  1  0.14895900  0.35359750  0.47920000  1
  H  H1478  1  0.14895900  0.35359750  0.72920000  1
  H  H1479  1  0.14895900  0.35359750  0.97920000  1
  H  H1480  1  0.14895900  0.60359750  0.22920000  1
  H  H1481  1  0.14895900  0.60359750  0.47920000  1
  H  H1482  1  0.14895900  0.60359750  0.72920000  1
  H  H1483  1  0.14895900  0.60359750  0.97920000  1
  H  H1484  1  0.14895900  0.85359750  0.22920000  1
  H  H1485  1  0.14895900  0.85359750  0.47920000  1
  H  H1486  1  0.14895900  0.85359750  0.72920000  1
  H  H1487  1  0.14895900  0.85359750  0.97920000  1
  H  H1488  1  0.39895900  0.10359750  0.22920000  1
  H  H1489  1  0.39895900  0.10359750  0.47920000  1
  H  H1490  1  0.39895900  0.10359750  0.72920000  1
  H  H1491  1  0.39895900  0.10359750  0.97920000  1
  H  H1492  1  0.39895900  0.35359750  0.22920000  1
  H  H1493  1  0.39895900  0.35359750  0.47920000  1
  H  H1494  1  0.39895900  0.35359750  0.72920000  1
  H  H1495  1  0.39895900  0.35359750  0.97920000  1
  H  H1496  1  0.39895900  0.60359750  0.22920000  1
  H  H1497  1  0.39895900  0.60359750  0.47920000  1
  H  H1498  1  0.39895900  0.60359750  0.72920000  1
  H  H1499  1  0.39895900  0.60359750  0.97920000  1
  H  H1500  1  0.39895900  0.85359750  0.22920000  1
  H  H1501  1  0.39895900  0.85359750  0.47920000  1
  H  H1502  1  0.39895900  0.85359750  0.72920000  1
  H  H1503  1  0.39895900  0.85359750  0.97920000  1
  H  H1504  1  0.64895900  0.10359750  0.22920000  1
  H  H1505  1  0.64895900  0.10359750  0.47920000  1
  H  H1506  1  0.64895900  0.10359750  0.72920000  1
  H  H1507  1  0.64895900  0.10359750  0.97920000  1
  H  H1508  1  0.64895900  0.35359750  0.22920000  1
  H  H1509  1  0.64895900  0.35359750  0.47920000  1
  H  H1510  1  0.64895900  0.35359750  0.72920000  1
  H  H1511  1  0.64895900  0.35359750  0.97920000  1
  H  H1512  1  0.64895900  0.60359750  0.22920000  1
  H  H1513  1  0.64895900  0.60359750  0.47920000  1
  H  H1514  1  0.64895900  0.60359750  0.72920000  1
  H  H1515  1  0.64895900  0.60359750  0.97920000  1
  H  H1516  1  0.64895900  0.85359750  0.22920000  1
  H  H1517  1  0.64895900  0.85359750  0.47920000  1
  H  H1518  1  0.64895900  0.85359750  0.72920000  1
  H  H1519  1  0.64895900  0.85359750  0.97920000  1
  H  H1520  1  0.89895900  0.10359750  0.22920000  1
  H  H1521  1  0.89895900  0.10359750  0.47920000  1
  H  H1522  1  0.89895900  0.10359750  0.72920000  1
  H  H1523  1  0.89895900  0.10359750  0.97920000  1
  H  H1524  1  0.89895900  0.35359750  0.22920000  1
  H  H1525  1  0.89895900  0.35359750  0.47920000  1
  H  H1526  1  0.89895900  0.35359750  0.72920000  1
  H  H1527  1  0.89895900  0.35359750  0.97920000  1
  H  H1528  1  0.89895900  0.60359750  0.22920000  1
  H  H1529  1  0.89895900  0.60359750  0.47920000  1
  H  H1530  1  0.89895900  0.60359750  0.72920000  1
  H  H1531  1  0.89895900  0.60359750  0.97920000  1
  H  H1532  1  0.89895900  0.85359750  0.22920000  1
  H  H1533  1  0.89895900  0.85359750  0.47920000  1
  H  H1534  1  0.89895900  0.85359750  0.72920000  1
  H  H1535  1  0.89895900  0.85359750  0.97920000  1
  H  H1536  1  0.15936350  0.22184300  0.06646925  1
  H  H1537  1  0.15936350  0.22184300  0.31646925  1
  H  H1538  1  0.15936350  0.22184300  0.56646925  1
  H  H1539  1  0.15936350  0.22184300  0.81646925  1
  H  H1540  1  0.15936350  0.47184300  0.06646925  1
  H  H1541  1  0.15936350  0.47184300  0.31646925  1
  H  H1542  1  0.15936350  0.47184300  0.56646925  1
  H  H1543  1  0.15936350  0.47184300  0.81646925  1
  H  H1544  1  0.15936350  0.72184300  0.06646925  1
  H  H1545  1  0.15936350  0.72184300  0.31646925  1
  H  H1546  1  0.15936350  0.72184300  0.56646925  1
  H  H1547  1  0.15936350  0.72184300  0.81646925  1
  H  H1548  1  0.15936350  0.97184300  0.06646925  1
  H  H1549  1  0.15936350  0.97184300  0.31646925  1
  H  H1550  1  0.15936350  0.97184300  0.56646925  1
  H  H1551  1  0.15936350  0.97184300  0.81646925  1
  H  H1552  1  0.40936350  0.22184300  0.06646925  1
  H  H1553  1  0.40936350  0.22184300  0.31646925  1
  H  H1554  1  0.40936350  0.22184300  0.56646925  1
  H  H1555  1  0.40936350  0.22184300  0.81646925  1
  H  H1556  1  0.40936350  0.47184300  0.06646925  1
  H  H1557  1  0.40936350  0.47184300  0.31646925  1
  H  H1558  1  0.40936350  0.47184300  0.56646925  1
  H  H1559  1  0.40936350  0.47184300  0.81646925  1
  H  H1560  1  0.40936350  0.72184300  0.06646925  1
  H  H1561  1  0.40936350  0.72184300  0.31646925  1
  H  H1562  1  0.40936350  0.72184300  0.56646925  1
  H  H1563  1  0.40936350  0.72184300  0.81646925  1
  H  H1564  1  0.40936350  0.97184300  0.06646925  1
  H  H1565  1  0.40936350  0.97184300  0.31646925  1
  H  H1566  1  0.40936350  0.97184300  0.56646925  1
  H  H1567  1  0.40936350  0.97184300  0.81646925  1
  H  H1568  1  0.65936350  0.22184300  0.06646925  1
  H  H1569  1  0.65936350  0.22184300  0.31646925  1
  H  H1570  1  0.65936350  0.22184300  0.56646925  1
  H  H1571  1  0.65936350  0.22184300  0.81646925  1
  H  H1572  1  0.65936350  0.47184300  0.06646925  1
  H  H1573  1  0.65936350  0.47184300  0.31646925  1
  H  H1574  1  0.65936350  0.47184300  0.56646925  1
  H  H1575  1  0.65936350  0.47184300  0.81646925  1
  H  H1576  1  0.65936350  0.72184300  0.06646925  1
  H  H1577  1  0.65936350  0.72184300  0.31646925  1
  H  H1578  1  0.65936350  0.72184300  0.56646925  1
  H  H1579  1  0.65936350  0.72184300  0.81646925  1
  H  H1580  1  0.65936350  0.97184300  0.06646925  1
  H  H1581  1  0.65936350  0.97184300  0.31646925  1
  H  H1582  1  0.65936350  0.97184300  0.56646925  1
  H  H1583  1  0.65936350  0.97184300  0.81646925  1
  H  H1584  1  0.90936350  0.22184300  0.06646925  1
  H  H1585  1  0.90936350  0.22184300  0.31646925  1
  H  H1586  1  0.90936350  0.22184300  0.56646925  1
  H  H1587  1  0.90936350  0.22184300  0.81646925  1
  H  H1588  1  0.90936350  0.47184300  0.06646925  1
  H  H1589  1  0.90936350  0.47184300  0.31646925  1
  H  H1590  1  0.90936350  0.47184300  0.56646925  1
  H  H1591  1  0.90936350  0.47184300  0.81646925  1
  H  H1592  1  0.90936350  0.72184300  0.06646925  1
  H  H1593  1  0.90936350  0.72184300  0.31646925  1
  H  H1594  1  0.90936350  0.72184300  0.56646925  1
  H  H1595  1  0.90936350  0.72184300  0.81646925  1
  H  H1596  1  0.90936350  0.97184300  0.06646925  1
  H  H1597  1  0.90936350  0.97184300  0.31646925  1
  H  H1598  1  0.90936350  0.97184300  0.56646925  1
  H  H1599  1  0.90936350  0.97184300  0.81646925  1
  H  H1600  1  0.09063650  0.02815700  0.18353075  1
  H  H1601  1  0.09063650  0.02815700  0.43353075  1
  H  H1602  1  0.09063650  0.02815700  0.68353075  1
  H  H1603  1  0.09063650  0.02815700  0.93353075  1
  H  H1604  1  0.09063650  0.27815700  0.18353075  1
  H  H1605  1  0.09063650  0.27815700  0.43353075  1
  H  H1606  1  0.09063650  0.27815700  0.68353075  1
  H  H1607  1  0.09063650  0.27815700  0.93353075  1
  H  H1608  1  0.09063650  0.52815700  0.18353075  1
  H  H1609  1  0.09063650  0.52815700  0.43353075  1
  H  H1610  1  0.09063650  0.52815700  0.68353075  1
  H  H1611  1  0.09063650  0.52815700  0.93353075  1
  H  H1612  1  0.09063650  0.77815700  0.18353075  1
  H  H1613  1  0.09063650  0.77815700  0.43353075  1
  H  H1614  1  0.09063650  0.77815700  0.68353075  1
  H  H1615  1  0.09063650  0.77815700  0.93353075  1
  H  H1616  1  0.34063650  0.02815700  0.18353075  1
  H  H1617  1  0.34063650  0.02815700  0.43353075  1
  H  H1618  1  0.34063650  0.02815700  0.68353075  1
  H  H1619  1  0.34063650  0.02815700  0.93353075  1
  H  H1620  1  0.34063650  0.27815700  0.18353075  1
  H  H1621  1  0.34063650  0.27815700  0.43353075  1
  H  H1622  1  0.34063650  0.27815700  0.68353075  1
  H  H1623  1  0.34063650  0.27815700  0.93353075  1
  H  H1624  1  0.34063650  0.52815700  0.18353075  1
  H  H1625  1  0.34063650  0.52815700  0.43353075  1
  H  H1626  1  0.34063650  0.52815700  0.68353075  1
  H  H1627  1  0.34063650  0.52815700  0.93353075  1
  H  H1628  1  0.34063650  0.77815700  0.18353075  1
  H  H1629  1  0.34063650  0.77815700  0.43353075  1
  H  H1630  1  0.34063650  0.77815700  0.68353075  1
  H  H1631  1  0.34063650  0.77815700  0.93353075  1
  H  H1632  1  0.59063650  0.02815700  0.18353075  1
  H  H1633  1  0.59063650  0.02815700  0.43353075  1
  H  H1634  1  0.59063650  0.02815700  0.68353075  1
  H  H1635  1  0.59063650  0.02815700  0.93353075  1
  H  H1636  1  0.59063650  0.27815700  0.18353075  1
  H  H1637  1  0.59063650  0.27815700  0.43353075  1
  H  H1638  1  0.59063650  0.27815700  0.68353075  1
  H  H1639  1  0.59063650  0.27815700  0.93353075  1
  H  H1640  1  0.59063650  0.52815700  0.18353075  1
  H  H1641  1  0.59063650  0.52815700  0.43353075  1
  H  H1642  1  0.59063650  0.52815700  0.68353075  1
  H  H1643  1  0.59063650  0.52815700  0.93353075  1
  H  H1644  1  0.59063650  0.77815700  0.18353075  1
  H  H1645  1  0.59063650  0.77815700  0.43353075  1
  H  H1646  1  0.59063650  0.77815700  0.68353075  1
  H  H1647  1  0.59063650  0.77815700  0.93353075  1
  H  H1648  1  0.84063650  0.02815700  0.18353075  1
  H  H1649  1  0.84063650  0.02815700  0.43353075  1
  H  H1650  1  0.84063650  0.02815700  0.68353075  1
  H  H1651  1  0.84063650  0.02815700  0.93353075  1
  H  H1652  1  0.84063650  0.27815700  0.18353075  1
  H  H1653  1  0.84063650  0.27815700  0.43353075  1
  H  H1654  1  0.84063650  0.27815700  0.68353075  1
  H  H1655  1  0.84063650  0.27815700  0.93353075  1
  H  H1656  1  0.84063650  0.52815700  0.18353075  1
  H  H1657  1  0.84063650  0.52815700  0.43353075  1
  H  H1658  1  0.84063650  0.52815700  0.68353075  1
  H  H1659  1  0.84063650  0.52815700  0.93353075  1
  H  H1660  1  0.84063650  0.77815700  0.18353075  1
  H  H1661  1  0.84063650  0.77815700  0.43353075  1
  H  H1662  1  0.84063650  0.77815700  0.68353075  1
  H  H1663  1  0.84063650  0.77815700  0.93353075  1
  H  H1664  1  0.20160025  0.01050000  0.06204150  1
  H  H1665  1  0.20160025  0.01050000  0.31204150  1
  H  H1666  1  0.20160025  0.01050000  0.56204150  1
  H  H1667  1  0.20160025  0.01050000  0.81204150  1
  H  H1668  1  0.20160025  0.26050000  0.06204150  1
  H  H1669  1  0.20160025  0.26050000  0.31204150  1
  H  H1670  1  0.20160025  0.26050000  0.56204150  1
  H  H1671  1  0.20160025  0.26050000  0.81204150  1
  H  H1672  1  0.20160025  0.51050000  0.06204150  1
  H  H1673  1  0.20160025  0.51050000  0.31204150  1
  H  H1674  1  0.20160025  0.51050000  0.56204150  1
  H  H1675  1  0.20160025  0.51050000  0.81204150  1
  H  H1676  1  0.20160025  0.76050000  0.06204150  1
  H  H1677  1  0.20160025  0.76050000  0.31204150  1
  H  H1678  1  0.20160025  0.76050000  0.56204150  1
  H  H1679  1  0.20160025  0.76050000  0.81204150  1
  H  H1680  1  0.45160025  0.01050000  0.06204150  1
  H  H1681  1  0.45160025  0.01050000  0.31204150  1
  H  H1682  1  0.45160025  0.01050000  0.56204150  1
  H  H1683  1  0.45160025  0.01050000  0.81204150  1
  H  H1684  1  0.45160025  0.26050000  0.06204150  1
  H  H1685  1  0.45160025  0.26050000  0.31204150  1
  H  H1686  1  0.45160025  0.26050000  0.56204150  1
  H  H1687  1  0.45160025  0.26050000  0.81204150  1
  H  H1688  1  0.45160025  0.51050000  0.06204150  1
  H  H1689  1  0.45160025  0.51050000  0.31204150  1
  H  H1690  1  0.45160025  0.51050000  0.56204150  1
  H  H1691  1  0.45160025  0.51050000  0.81204150  1
  H  H1692  1  0.45160025  0.76050000  0.06204150  1
  H  H1693  1  0.45160025  0.76050000  0.31204150  1
  H  H1694  1  0.45160025  0.76050000  0.56204150  1
  H  H1695  1  0.45160025  0.76050000  0.81204150  1
  H  H1696  1  0.70160025  0.01050000  0.06204150  1
  H  H1697  1  0.70160025  0.01050000  0.31204150  1
  H  H1698  1  0.70160025  0.01050000  0.56204150  1
  H  H1699  1  0.70160025  0.01050000  0.81204150  1
  H  H1700  1  0.70160025  0.26050000  0.06204150  1
  H  H1701  1  0.70160025  0.26050000  0.31204150  1
  H  H1702  1  0.70160025  0.26050000  0.56204150  1
  H  H1703  1  0.70160025  0.26050000  0.81204150  1
  H  H1704  1  0.70160025  0.51050000  0.06204150  1
  H  H1705  1  0.70160025  0.51050000  0.31204150  1
  H  H1706  1  0.70160025  0.51050000  0.56204150  1
  H  H1707  1  0.70160025  0.51050000  0.81204150  1
  H  H1708  1  0.70160025  0.76050000  0.06204150  1
  H  H1709  1  0.70160025  0.76050000  0.31204150  1
  H  H1710  1  0.70160025  0.76050000  0.56204150  1
  H  H1711  1  0.70160025  0.76050000  0.81204150  1
  H  H1712  1  0.95160025  0.01050000  0.06204150  1
  H  H1713  1  0.95160025  0.01050000  0.31204150  1
  H  H1714  1  0.95160025  0.01050000  0.56204150  1
  H  H1715  1  0.95160025  0.01050000  0.81204150  1
  H  H1716  1  0.95160025  0.26050000  0.06204150  1
  H  H1717  1  0.95160025  0.26050000  0.31204150  1
  H  H1718  1  0.95160025  0.26050000  0.56204150  1
  H  H1719  1  0.95160025  0.26050000  0.81204150  1
  H  H1720  1  0.95160025  0.51050000  0.06204150  1
  H  H1721  1  0.95160025  0.51050000  0.31204150  1
  H  H1722  1  0.95160025  0.51050000  0.56204150  1
  H  H1723  1  0.95160025  0.51050000  0.81204150  1
  H  H1724  1  0.95160025  0.76050000  0.06204150  1
  H  H1725  1  0.95160025  0.76050000  0.31204150  1
  H  H1726  1  0.95160025  0.76050000  0.56204150  1
  H  H1727  1  0.95160025  0.76050000  0.81204150  1
  H  H1728  1  0.04839975  0.23950000  0.18795850  1
  H  H1729  1  0.04839975  0.23950000  0.43795850  1
  H  H1730  1  0.04839975  0.23950000  0.68795850  1
  H  H1731  1  0.04839975  0.23950000  0.93795850  1
  H  H1732  1  0.04839975  0.48950000  0.18795850  1
  H  H1733  1  0.04839975  0.48950000  0.43795850  1
  H  H1734  1  0.04839975  0.48950000  0.68795850  1
  H  H1735  1  0.04839975  0.48950000  0.93795850  1
  H  H1736  1  0.04839975  0.73950000  0.18795850  1
  H  H1737  1  0.04839975  0.73950000  0.43795850  1
  H  H1738  1  0.04839975  0.73950000  0.68795850  1
  H  H1739  1  0.04839975  0.73950000  0.93795850  1
  H  H1740  1  0.04839975  0.98950000  0.18795850  1
  H  H1741  1  0.04839975  0.98950000  0.43795850  1
  H  H1742  1  0.04839975  0.98950000  0.68795850  1
  H  H1743  1  0.04839975  0.98950000  0.93795850  1
  H  H1744  1  0.29839975  0.23950000  0.18795850  1
  H  H1745  1  0.29839975  0.23950000  0.43795850  1
  H  H1746  1  0.29839975  0.23950000  0.68795850  1
  H  H1747  1  0.29839975  0.23950000  0.93795850  1
  H  H1748  1  0.29839975  0.48950000  0.18795850  1
  H  H1749  1  0.29839975  0.48950000  0.43795850  1
  H  H1750  1  0.29839975  0.48950000  0.68795850  1
  H  H1751  1  0.29839975  0.48950000  0.93795850  1
  H  H1752  1  0.29839975  0.73950000  0.18795850  1
  H  H1753  1  0.29839975  0.73950000  0.43795850  1
  H  H1754  1  0.29839975  0.73950000  0.68795850  1
  H  H1755  1  0.29839975  0.73950000  0.93795850  1
  H  H1756  1  0.29839975  0.98950000  0.18795850  1
  H  H1757  1  0.29839975  0.98950000  0.43795850  1
  H  H1758  1  0.29839975  0.98950000  0.68795850  1
  H  H1759  1  0.29839975  0.98950000  0.93795850  1
  H  H1760  1  0.54839975  0.23950000  0.18795850  1
  H  H1761  1  0.54839975  0.23950000  0.43795850  1
  H  H1762  1  0.54839975  0.23950000  0.68795850  1
  H  H1763  1  0.54839975  0.23950000  0.93795850  1
  H  H1764  1  0.54839975  0.48950000  0.18795850  1
  H  H1765  1  0.54839975  0.48950000  0.43795850  1
  H  H1766  1  0.54839975  0.48950000  0.68795850  1
  H  H1767  1  0.54839975  0.48950000  0.93795850  1
  H  H1768  1  0.54839975  0.73950000  0.18795850  1
  H  H1769  1  0.54839975  0.73950000  0.43795850  1
  H  H1770  1  0.54839975  0.73950000  0.68795850  1
  H  H1771  1  0.54839975  0.73950000  0.93795850  1
  H  H1772  1  0.54839975  0.98950000  0.18795850  1
  H  H1773  1  0.54839975  0.98950000  0.43795850  1
  H  H1774  1  0.54839975  0.98950000  0.68795850  1
  H  H1775  1  0.54839975  0.98950000  0.93795850  1
  H  H1776  1  0.79839975  0.23950000  0.18795850  1
  H  H1777  1  0.79839975  0.23950000  0.43795850  1
  H  H1778  1  0.79839975  0.23950000  0.68795850  1
  H  H1779  1  0.79839975  0.23950000  0.93795850  1
  H  H1780  1  0.79839975  0.48950000  0.18795850  1
  H  H1781  1  0.79839975  0.48950000  0.43795850  1
  H  H1782  1  0.79839975  0.48950000  0.68795850  1
  H  H1783  1  0.79839975  0.48950000  0.93795850  1
  H  H1784  1  0.79839975  0.73950000  0.18795850  1
  H  H1785  1  0.79839975  0.73950000  0.43795850  1
  H  H1786  1  0.79839975  0.73950000  0.68795850  1
  H  H1787  1  0.79839975  0.73950000  0.93795850  1
  H  H1788  1  0.79839975  0.98950000  0.18795850  1
  H  H1789  1  0.79839975  0.98950000  0.43795850  1
  H  H1790  1  0.79839975  0.98950000  0.68795850  1
  H  H1791  1  0.79839975  0.98950000  0.93795850  1
  H  H1792  1  0.15790750  0.00981200  0.05760525  1
  H  H1793  1  0.15790750  0.00981200  0.30760525  1
  H  H1794  1  0.15790750  0.00981200  0.55760525  1
  H  H1795  1  0.15790750  0.00981200  0.80760525  1
  H  H1796  1  0.15790750  0.25981200  0.05760525  1
  H  H1797  1  0.15790750  0.25981200  0.30760525  1
  H  H1798  1  0.15790750  0.25981200  0.55760525  1
  H  H1799  1  0.15790750  0.25981200  0.80760525  1
  H  H1800  1  0.15790750  0.50981200  0.05760525  1
  H  H1801  1  0.15790750  0.50981200  0.30760525  1
  H  H1802  1  0.15790750  0.50981200  0.55760525  1
  H  H1803  1  0.15790750  0.50981200  0.80760525  1
  H  H1804  1  0.15790750  0.75981200  0.05760525  1
  H  H1805  1  0.15790750  0.75981200  0.30760525  1
  H  H1806  1  0.15790750  0.75981200  0.55760525  1
  H  H1807  1  0.15790750  0.75981200  0.80760525  1
  H  H1808  1  0.40790750  0.00981200  0.05760525  1
  H  H1809  1  0.40790750  0.00981200  0.30760525  1
  H  H1810  1  0.40790750  0.00981200  0.55760525  1
  H  H1811  1  0.40790750  0.00981200  0.80760525  1
  H  H1812  1  0.40790750  0.25981200  0.05760525  1
  H  H1813  1  0.40790750  0.25981200  0.30760525  1
  H  H1814  1  0.40790750  0.25981200  0.55760525  1
  H  H1815  1  0.40790750  0.25981200  0.80760525  1
  H  H1816  1  0.40790750  0.50981200  0.05760525  1
  H  H1817  1  0.40790750  0.50981200  0.30760525  1
  H  H1818  1  0.40790750  0.50981200  0.55760525  1
  H  H1819  1  0.40790750  0.50981200  0.80760525  1
  H  H1820  1  0.40790750  0.75981200  0.05760525  1
  H  H1821  1  0.40790750  0.75981200  0.30760525  1
  H  H1822  1  0.40790750  0.75981200  0.55760525  1
  H  H1823  1  0.40790750  0.75981200  0.80760525  1
  H  H1824  1  0.65790750  0.00981200  0.05760525  1
  H  H1825  1  0.65790750  0.00981200  0.30760525  1
  H  H1826  1  0.65790750  0.00981200  0.55760525  1
  H  H1827  1  0.65790750  0.00981200  0.80760525  1
  H  H1828  1  0.65790750  0.25981200  0.05760525  1
  H  H1829  1  0.65790750  0.25981200  0.30760525  1
  H  H1830  1  0.65790750  0.25981200  0.55760525  1
  H  H1831  1  0.65790750  0.25981200  0.80760525  1
  H  H1832  1  0.65790750  0.50981200  0.05760525  1
  H  H1833  1  0.65790750  0.50981200  0.30760525  1
  H  H1834  1  0.65790750  0.50981200  0.55760525  1
  H  H1835  1  0.65790750  0.50981200  0.80760525  1
  H  H1836  1  0.65790750  0.75981200  0.05760525  1
  H  H1837  1  0.65790750  0.75981200  0.30760525  1
  H  H1838  1  0.65790750  0.75981200  0.55760525  1
  H  H1839  1  0.65790750  0.75981200  0.80760525  1
  H  H1840  1  0.90790750  0.00981200  0.05760525  1
  H  H1841  1  0.90790750  0.00981200  0.30760525  1
  H  H1842  1  0.90790750  0.00981200  0.55760525  1
  H  H1843  1  0.90790750  0.00981200  0.80760525  1
  H  H1844  1  0.90790750  0.25981200  0.05760525  1
  H  H1845  1  0.90790750  0.25981200  0.30760525  1
  H  H1846  1  0.90790750  0.25981200  0.55760525  1
  H  H1847  1  0.90790750  0.25981200  0.80760525  1
  H  H1848  1  0.90790750  0.50981200  0.05760525  1
  H  H1849  1  0.90790750  0.50981200  0.30760525  1
  H  H1850  1  0.90790750  0.50981200  0.55760525  1
  H  H1851  1  0.90790750  0.50981200  0.80760525  1
  H  H1852  1  0.90790750  0.75981200  0.05760525  1
  H  H1853  1  0.90790750  0.75981200  0.30760525  1
  H  H1854  1  0.90790750  0.75981200  0.55760525  1
  H  H1855  1  0.90790750  0.75981200  0.80760525  1
  H  H1856  1  0.09209250  0.24018800  0.19239475  1
  H  H1857  1  0.09209250  0.24018800  0.44239475  1
  H  H1858  1  0.09209250  0.24018800  0.69239475  1
  H  H1859  1  0.09209250  0.24018800  0.94239475  1
  H  H1860  1  0.09209250  0.49018800  0.19239475  1
  H  H1861  1  0.09209250  0.49018800  0.44239475  1
  H  H1862  1  0.09209250  0.49018800  0.69239475  1
  H  H1863  1  0.09209250  0.49018800  0.94239475  1
  H  H1864  1  0.09209250  0.74018800  0.19239475  1
  H  H1865  1  0.09209250  0.74018800  0.44239475  1
  H  H1866  1  0.09209250  0.74018800  0.69239475  1
  H  H1867  1  0.09209250  0.74018800  0.94239475  1
  H  H1868  1  0.09209250  0.99018800  0.19239475  1
  H  H1869  1  0.09209250  0.99018800  0.44239475  1
  H  H1870  1  0.09209250  0.99018800  0.69239475  1
  H  H1871  1  0.09209250  0.99018800  0.94239475  1
  H  H1872  1  0.34209250  0.24018800  0.19239475  1
  H  H1873  1  0.34209250  0.24018800  0.44239475  1
  H  H1874  1  0.34209250  0.24018800  0.69239475  1
  H  H1875  1  0.34209250  0.24018800  0.94239475  1
  H  H1876  1  0.34209250  0.49018800  0.19239475  1
  H  H1877  1  0.34209250  0.49018800  0.44239475  1
  H  H1878  1  0.34209250  0.49018800  0.69239475  1
  H  H1879  1  0.34209250  0.49018800  0.94239475  1
  H  H1880  1  0.34209250  0.74018800  0.19239475  1
  H  H1881  1  0.34209250  0.74018800  0.44239475  1
  H  H1882  1  0.34209250  0.74018800  0.69239475  1
  H  H1883  1  0.34209250  0.74018800  0.94239475  1
  H  H1884  1  0.34209250  0.99018800  0.19239475  1
  H  H1885  1  0.34209250  0.99018800  0.44239475  1
  H  H1886  1  0.34209250  0.99018800  0.69239475  1
  H  H1887  1  0.34209250  0.99018800  0.94239475  1
  H  H1888  1  0.59209250  0.24018800  0.19239475  1
  H  H1889  1  0.59209250  0.24018800  0.44239475  1
  H  H1890  1  0.59209250  0.24018800  0.69239475  1
  H  H1891  1  0.59209250  0.24018800  0.94239475  1
  H  H1892  1  0.59209250  0.49018800  0.19239475  1
  H  H1893  1  0.59209250  0.49018800  0.44239475  1
  H  H1894  1  0.59209250  0.49018800  0.69239475  1
  H  H1895  1  0.59209250  0.49018800  0.94239475  1
  H  H1896  1  0.59209250  0.74018800  0.19239475  1
  H  H1897  1  0.59209250  0.74018800  0.44239475  1
  H  H1898  1  0.59209250  0.74018800  0.69239475  1
  H  H1899  1  0.59209250  0.74018800  0.94239475  1
  H  H1900  1  0.59209250  0.99018800  0.19239475  1
  H  H1901  1  0.59209250  0.99018800  0.44239475  1
  H  H1902  1  0.59209250  0.99018800  0.69239475  1
  H  H1903  1  0.59209250  0.99018800  0.94239475  1
  H  H1904  1  0.84209250  0.24018800  0.19239475  1
  H  H1905  1  0.84209250  0.24018800  0.44239475  1
  H  H1906  1  0.84209250  0.24018800  0.69239475  1
  H  H1907  1  0.84209250  0.24018800  0.94239475  1
  H  H1908  1  0.84209250  0.49018800  0.19239475  1
  H  H1909  1  0.84209250  0.49018800  0.44239475  1
  H  H1910  1  0.84209250  0.49018800  0.69239475  1
  H  H1911  1  0.84209250  0.49018800  0.94239475  1
  H  H1912  1  0.84209250  0.74018800  0.19239475  1
  H  H1913  1  0.84209250  0.74018800  0.44239475  1
  H  H1914  1  0.84209250  0.74018800  0.69239475  1
  H  H1915  1  0.84209250  0.74018800  0.94239475  1
  H  H1916  1  0.84209250  0.99018800  0.19239475  1
  H  H1917  1  0.84209250  0.99018800  0.44239475  1
  H  H1918  1  0.84209250  0.99018800  0.69239475  1
  H  H1919  1  0.84209250  0.99018800  0.94239475  1
  H  H1920  1  0.19969800  0.17346625  0.03106775  1
  H  H1921  1  0.19969800  0.17346625  0.28106775  1
  H  H1922  1  0.19969800  0.17346625  0.53106775  1
  H  H1923  1  0.19969800  0.17346625  0.78106775  1
  H  H1924  1  0.19969800  0.42346625  0.03106775  1
  H  H1925  1  0.19969800  0.42346625  0.28106775  1
  H  H1926  1  0.19969800  0.42346625  0.53106775  1
  H  H1927  1  0.19969800  0.42346625  0.78106775  1
  H  H1928  1  0.19969800  0.67346625  0.03106775  1
  H  H1929  1  0.19969800  0.67346625  0.28106775  1
  H  H1930  1  0.19969800  0.67346625  0.53106775  1
  H  H1931  1  0.19969800  0.67346625  0.78106775  1
  H  H1932  1  0.19969800  0.92346625  0.03106775  1
  H  H1933  1  0.19969800  0.92346625  0.28106775  1
  H  H1934  1  0.19969800  0.92346625  0.53106775  1
  H  H1935  1  0.19969800  0.92346625  0.78106775  1
  H  H1936  1  0.44969800  0.17346625  0.03106775  1
  H  H1937  1  0.44969800  0.17346625  0.28106775  1
  H  H1938  1  0.44969800  0.17346625  0.53106775  1
  H  H1939  1  0.44969800  0.17346625  0.78106775  1
  H  H1940  1  0.44969800  0.42346625  0.03106775  1
  H  H1941  1  0.44969800  0.42346625  0.28106775  1
  H  H1942  1  0.44969800  0.42346625  0.53106775  1
  H  H1943  1  0.44969800  0.42346625  0.78106775  1
  H  H1944  1  0.44969800  0.67346625  0.03106775  1
  H  H1945  1  0.44969800  0.67346625  0.28106775  1
  H  H1946  1  0.44969800  0.67346625  0.53106775  1
  H  H1947  1  0.44969800  0.67346625  0.78106775  1
  H  H1948  1  0.44969800  0.92346625  0.03106775  1
  H  H1949  1  0.44969800  0.92346625  0.28106775  1
  H  H1950  1  0.44969800  0.92346625  0.53106775  1
  H  H1951  1  0.44969800  0.92346625  0.78106775  1
  H  H1952  1  0.69969800  0.17346625  0.03106775  1
  H  H1953  1  0.69969800  0.17346625  0.28106775  1
  H  H1954  1  0.69969800  0.17346625  0.53106775  1
  H  H1955  1  0.69969800  0.17346625  0.78106775  1
  H  H1956  1  0.69969800  0.42346625  0.03106775  1
  H  H1957  1  0.69969800  0.42346625  0.28106775  1
  H  H1958  1  0.69969800  0.42346625  0.53106775  1
  H  H1959  1  0.69969800  0.42346625  0.78106775  1
  H  H1960  1  0.69969800  0.67346625  0.03106775  1
  H  H1961  1  0.69969800  0.67346625  0.28106775  1
  H  H1962  1  0.69969800  0.67346625  0.53106775  1
  H  H1963  1  0.69969800  0.67346625  0.78106775  1
  H  H1964  1  0.69969800  0.92346625  0.03106775  1
  H  H1965  1  0.69969800  0.92346625  0.28106775  1
  H  H1966  1  0.69969800  0.92346625  0.53106775  1
  H  H1967  1  0.69969800  0.92346625  0.78106775  1
  H  H1968  1  0.94969800  0.17346625  0.03106775  1
  H  H1969  1  0.94969800  0.17346625  0.28106775  1
  H  H1970  1  0.94969800  0.17346625  0.53106775  1
  H  H1971  1  0.94969800  0.17346625  0.78106775  1
  H  H1972  1  0.94969800  0.42346625  0.03106775  1
  H  H1973  1  0.94969800  0.42346625  0.28106775  1
  H  H1974  1  0.94969800  0.42346625  0.53106775  1
  H  H1975  1  0.94969800  0.42346625  0.78106775  1
  H  H1976  1  0.94969800  0.67346625  0.03106775  1
  H  H1977  1  0.94969800  0.67346625  0.28106775  1
  H  H1978  1  0.94969800  0.67346625  0.53106775  1
  H  H1979  1  0.94969800  0.67346625  0.78106775  1
  H  H1980  1  0.94969800  0.92346625  0.03106775  1
  H  H1981  1  0.94969800  0.92346625  0.28106775  1
  H  H1982  1  0.94969800  0.92346625  0.53106775  1
  H  H1983  1  0.94969800  0.92346625  0.78106775  1
  H  H1984  1  0.05030200  0.07653375  0.21893225  1
  H  H1985  1  0.05030200  0.07653375  0.46893225  1
  H  H1986  1  0.05030200  0.07653375  0.71893225  1
  H  H1987  1  0.05030200  0.07653375  0.96893225  1
  H  H1988  1  0.05030200  0.32653375  0.21893225  1
  H  H1989  1  0.05030200  0.32653375  0.46893225  1
  H  H1990  1  0.05030200  0.32653375  0.71893225  1
  H  H1991  1  0.05030200  0.32653375  0.96893225  1
  H  H1992  1  0.05030200  0.57653375  0.21893225  1
  H  H1993  1  0.05030200  0.57653375  0.46893225  1
  H  H1994  1  0.05030200  0.57653375  0.71893225  1
  H  H1995  1  0.05030200  0.57653375  0.96893225  1
  H  H1996  1  0.05030200  0.82653375  0.21893225  1
  H  H1997  1  0.05030200  0.82653375  0.46893225  1
  H  H1998  1  0.05030200  0.82653375  0.71893225  1
  H  H1999  1  0.05030200  0.82653375  0.96893225  1
  H  H2000  1  0.30030200  0.07653375  0.21893225  1
  H  H2001  1  0.30030200  0.07653375  0.46893225  1
  H  H2002  1  0.30030200  0.07653375  0.71893225  1
  H  H2003  1  0.30030200  0.07653375  0.96893225  1
  H  H2004  1  0.30030200  0.32653375  0.21893225  1
  H  H2005  1  0.30030200  0.32653375  0.46893225  1
  H  H2006  1  0.30030200  0.32653375  0.71893225  1
  H  H2007  1  0.30030200  0.32653375  0.96893225  1
  H  H2008  1  0.30030200  0.57653375  0.21893225  1
  H  H2009  1  0.30030200  0.57653375  0.46893225  1
  H  H2010  1  0.30030200  0.57653375  0.71893225  1
  H  H2011  1  0.30030200  0.57653375  0.96893225  1
  H  H2012  1  0.30030200  0.82653375  0.21893225  1
  H  H2013  1  0.30030200  0.82653375  0.46893225  1
  H  H2014  1  0.30030200  0.82653375  0.71893225  1
  H  H2015  1  0.30030200  0.82653375  0.96893225  1
  H  H2016  1  0.55030200  0.07653375  0.21893225  1
  H  H2017  1  0.55030200  0.07653375  0.46893225  1
  H  H2018  1  0.55030200  0.07653375  0.71893225  1
  H  H2019  1  0.55030200  0.07653375  0.96893225  1
  H  H2020  1  0.55030200  0.32653375  0.21893225  1
  H  H2021  1  0.55030200  0.32653375  0.46893225  1
  H  H2022  1  0.55030200  0.32653375  0.71893225  1
  H  H2023  1  0.55030200  0.32653375  0.96893225  1
  H  H2024  1  0.55030200  0.57653375  0.21893225  1
  H  H2025  1  0.55030200  0.57653375  0.46893225  1
  H  H2026  1  0.55030200  0.57653375  0.71893225  1
  H  H2027  1  0.55030200  0.57653375  0.96893225  1
  H  H2028  1  0.55030200  0.82653375  0.21893225  1
  H  H2029  1  0.55030200  0.82653375  0.46893225  1
  H  H2030  1  0.55030200  0.82653375  0.71893225  1
  H  H2031  1  0.55030200  0.82653375  0.96893225  1
  H  H2032  1  0.80030200  0.07653375  0.21893225  1
  H  H2033  1  0.80030200  0.07653375  0.46893225  1
  H  H2034  1  0.80030200  0.07653375  0.71893225  1
  H  H2035  1  0.80030200  0.07653375  0.96893225  1
  H  H2036  1  0.80030200  0.32653375  0.21893225  1
  H  H2037  1  0.80030200  0.32653375  0.46893225  1
  H  H2038  1  0.80030200  0.32653375  0.71893225  1
  H  H2039  1  0.80030200  0.32653375  0.96893225  1
  H  H2040  1  0.80030200  0.57653375  0.21893225  1
  H  H2041  1  0.80030200  0.57653375  0.46893225  1
  H  H2042  1  0.80030200  0.57653375  0.71893225  1
  H  H2043  1  0.80030200  0.57653375  0.96893225  1
  H  H2044  1  0.80030200  0.82653375  0.21893225  1
  H  H2045  1  0.80030200  0.82653375  0.46893225  1
  H  H2046  1  0.80030200  0.82653375  0.71893225  1
  H  H2047  1  0.80030200  0.82653375  0.96893225  1
  H  H2048  1  0.21291025  0.18466900  0.00374725  1
  H  H2049  1  0.21291025  0.18466900  0.25374725  1
  H  H2050  1  0.21291025  0.18466900  0.50374725  1
  H  H2051  1  0.21291025  0.18466900  0.75374725  1
  H  H2052  1  0.21291025  0.43466900  0.00374725  1
  H  H2053  1  0.21291025  0.43466900  0.25374725  1
  H  H2054  1  0.21291025  0.43466900  0.50374725  1
  H  H2055  1  0.21291025  0.43466900  0.75374725  1
  H  H2056  1  0.21291025  0.68466900  0.00374725  1
  H  H2057  1  0.21291025  0.68466900  0.25374725  1
  H  H2058  1  0.21291025  0.68466900  0.50374725  1
  H  H2059  1  0.21291025  0.68466900  0.75374725  1
  H  H2060  1  0.21291025  0.93466900  0.00374725  1
  H  H2061  1  0.21291025  0.93466900  0.25374725  1
  H  H2062  1  0.21291025  0.93466900  0.50374725  1
  H  H2063  1  0.21291025  0.93466900  0.75374725  1
  H  H2064  1  0.46291025  0.18466900  0.00374725  1
  H  H2065  1  0.46291025  0.18466900  0.25374725  1
  H  H2066  1  0.46291025  0.18466900  0.50374725  1
  H  H2067  1  0.46291025  0.18466900  0.75374725  1
  H  H2068  1  0.46291025  0.43466900  0.00374725  1
  H  H2069  1  0.46291025  0.43466900  0.25374725  1
  H  H2070  1  0.46291025  0.43466900  0.50374725  1
  H  H2071  1  0.46291025  0.43466900  0.75374725  1
  H  H2072  1  0.46291025  0.68466900  0.00374725  1
  H  H2073  1  0.46291025  0.68466900  0.25374725  1
  H  H2074  1  0.46291025  0.68466900  0.50374725  1
  H  H2075  1  0.46291025  0.68466900  0.75374725  1
  H  H2076  1  0.46291025  0.93466900  0.00374725  1
  H  H2077  1  0.46291025  0.93466900  0.25374725  1
  H  H2078  1  0.46291025  0.93466900  0.50374725  1
  H  H2079  1  0.46291025  0.93466900  0.75374725  1
  H  H2080  1  0.71291025  0.18466900  0.00374725  1
  H  H2081  1  0.71291025  0.18466900  0.25374725  1
  H  H2082  1  0.71291025  0.18466900  0.50374725  1
  H  H2083  1  0.71291025  0.18466900  0.75374725  1
  H  H2084  1  0.71291025  0.43466900  0.00374725  1
  H  H2085  1  0.71291025  0.43466900  0.25374725  1
  H  H2086  1  0.71291025  0.43466900  0.50374725  1
  H  H2087  1  0.71291025  0.43466900  0.75374725  1
  H  H2088  1  0.71291025  0.68466900  0.00374725  1
  H  H2089  1  0.71291025  0.68466900  0.25374725  1
  H  H2090  1  0.71291025  0.68466900  0.50374725  1
  H  H2091  1  0.71291025  0.68466900  0.75374725  1
  H  H2092  1  0.71291025  0.93466900  0.00374725  1
  H  H2093  1  0.71291025  0.93466900  0.25374725  1
  H  H2094  1  0.71291025  0.93466900  0.50374725  1
  H  H2095  1  0.71291025  0.93466900  0.75374725  1
  H  H2096  1  0.96291025  0.18466900  0.00374725  1
  H  H2097  1  0.96291025  0.18466900  0.25374725  1
  H  H2098  1  0.96291025  0.18466900  0.50374725  1
  H  H2099  1  0.96291025  0.18466900  0.75374725  1
  H  H2100  1  0.96291025  0.43466900  0.00374725  1
  H  H2101  1  0.96291025  0.43466900  0.25374725  1
  H  H2102  1  0.96291025  0.43466900  0.50374725  1
  H  H2103  1  0.96291025  0.43466900  0.75374725  1
  H  H2104  1  0.96291025  0.68466900  0.00374725  1
  H  H2105  1  0.96291025  0.68466900  0.25374725  1
  H  H2106  1  0.96291025  0.68466900  0.50374725  1
  H  H2107  1  0.96291025  0.68466900  0.75374725  1
  H  H2108  1  0.96291025  0.93466900  0.00374725  1
  H  H2109  1  0.96291025  0.93466900  0.25374725  1
  H  H2110  1  0.96291025  0.93466900  0.50374725  1
  H  H2111  1  0.96291025  0.93466900  0.75374725  1
  H  H2112  1  0.03708975  0.06533100  0.24625275  1
  H  H2113  1  0.03708975  0.06533100  0.49625275  1
  H  H2114  1  0.03708975  0.06533100  0.74625275  1
  H  H2115  1  0.03708975  0.06533100  0.99625275  1
  H  H2116  1  0.03708975  0.31533100  0.24625275  1
  H  H2117  1  0.03708975  0.31533100  0.49625275  1
  H  H2118  1  0.03708975  0.31533100  0.74625275  1
  H  H2119  1  0.03708975  0.31533100  0.99625275  1
  H  H2120  1  0.03708975  0.56533100  0.24625275  1
  H  H2121  1  0.03708975  0.56533100  0.49625275  1
  H  H2122  1  0.03708975  0.56533100  0.74625275  1
  H  H2123  1  0.03708975  0.56533100  0.99625275  1
  H  H2124  1  0.03708975  0.81533100  0.24625275  1
  H  H2125  1  0.03708975  0.81533100  0.49625275  1
  H  H2126  1  0.03708975  0.81533100  0.74625275  1
  H  H2127  1  0.03708975  0.81533100  0.99625275  1
  H  H2128  1  0.28708975  0.06533100  0.24625275  1
  H  H2129  1  0.28708975  0.06533100  0.49625275  1
  H  H2130  1  0.28708975  0.06533100  0.74625275  1
  H  H2131  1  0.28708975  0.06533100  0.99625275  1
  H  H2132  1  0.28708975  0.31533100  0.24625275  1
  H  H2133  1  0.28708975  0.31533100  0.49625275  1
  H  H2134  1  0.28708975  0.31533100  0.74625275  1
  H  H2135  1  0.28708975  0.31533100  0.99625275  1
  H  H2136  1  0.28708975  0.56533100  0.24625275  1
  H  H2137  1  0.28708975  0.56533100  0.49625275  1
  H  H2138  1  0.28708975  0.56533100  0.74625275  1
  H  H2139  1  0.28708975  0.56533100  0.99625275  1
  H  H2140  1  0.28708975  0.81533100  0.24625275  1
  H  H2141  1  0.28708975  0.81533100  0.49625275  1
  H  H2142  1  0.28708975  0.81533100  0.74625275  1
  H  H2143  1  0.28708975  0.81533100  0.99625275  1
  H  H2144  1  0.53708975  0.06533100  0.24625275  1
  H  H2145  1  0.53708975  0.06533100  0.49625275  1
  H  H2146  1  0.53708975  0.06533100  0.74625275  1
  H  H2147  1  0.53708975  0.06533100  0.99625275  1
  H  H2148  1  0.53708975  0.31533100  0.24625275  1
  H  H2149  1  0.53708975  0.31533100  0.49625275  1
  H  H2150  1  0.53708975  0.31533100  0.74625275  1
  H  H2151  1  0.53708975  0.31533100  0.99625275  1
  H  H2152  1  0.53708975  0.56533100  0.24625275  1
  H  H2153  1  0.53708975  0.56533100  0.49625275  1
  H  H2154  1  0.53708975  0.56533100  0.74625275  1
  H  H2155  1  0.53708975  0.56533100  0.99625275  1
  H  H2156  1  0.53708975  0.81533100  0.24625275  1
  H  H2157  1  0.53708975  0.81533100  0.49625275  1
  H  H2158  1  0.53708975  0.81533100  0.74625275  1
  H  H2159  1  0.53708975  0.81533100  0.99625275  1
  H  H2160  1  0.78708975  0.06533100  0.24625275  1
  H  H2161  1  0.78708975  0.06533100  0.49625275  1
  H  H2162  1  0.78708975  0.06533100  0.74625275  1
  H  H2163  1  0.78708975  0.06533100  0.99625275  1
  H  H2164  1  0.78708975  0.31533100  0.24625275  1
  H  H2165  1  0.78708975  0.31533100  0.49625275  1
  H  H2166  1  0.78708975  0.31533100  0.74625275  1
  H  H2167  1  0.78708975  0.31533100  0.99625275  1
  H  H2168  1  0.78708975  0.56533100  0.24625275  1
  H  H2169  1  0.78708975  0.56533100  0.49625275  1
  H  H2170  1  0.78708975  0.56533100  0.74625275  1
  H  H2171  1  0.78708975  0.56533100  0.99625275  1
  H  H2172  1  0.78708975  0.81533100  0.24625275  1
  H  H2173  1  0.78708975  0.81533100  0.49625275  1
  H  H2174  1  0.78708975  0.81533100  0.74625275  1
  H  H2175  1  0.78708975  0.81533100  0.99625275  1
  H  H2176  1  0.23601950  0.21908750  0.02983800  1
  H  H2177  1  0.23601950  0.21908750  0.27983800  1
  H  H2178  1  0.23601950  0.21908750  0.52983800  1
  H  H2179  1  0.23601950  0.21908750  0.77983800  1
  H  H2180  1  0.23601950  0.46908750  0.02983800  1
  H  H2181  1  0.23601950  0.46908750  0.27983800  1
  H  H2182  1  0.23601950  0.46908750  0.52983800  1
  H  H2183  1  0.23601950  0.46908750  0.77983800  1
  H  H2184  1  0.23601950  0.71908750  0.02983800  1
  H  H2185  1  0.23601950  0.71908750  0.27983800  1
  H  H2186  1  0.23601950  0.71908750  0.52983800  1
  H  H2187  1  0.23601950  0.71908750  0.77983800  1
  H  H2188  1  0.23601950  0.96908750  0.02983800  1
  H  H2189  1  0.23601950  0.96908750  0.27983800  1
  H  H2190  1  0.23601950  0.96908750  0.52983800  1
  H  H2191  1  0.23601950  0.96908750  0.77983800  1
  H  H2192  1  0.48601950  0.21908750  0.02983800  1
  H  H2193  1  0.48601950  0.21908750  0.27983800  1
  H  H2194  1  0.48601950  0.21908750  0.52983800  1
  H  H2195  1  0.48601950  0.21908750  0.77983800  1
  H  H2196  1  0.48601950  0.46908750  0.02983800  1
  H  H2197  1  0.48601950  0.46908750  0.27983800  1
  H  H2198  1  0.48601950  0.46908750  0.52983800  1
  H  H2199  1  0.48601950  0.46908750  0.77983800  1
  H  H2200  1  0.48601950  0.71908750  0.02983800  1
  H  H2201  1  0.48601950  0.71908750  0.27983800  1
  H  H2202  1  0.48601950  0.71908750  0.52983800  1
  H  H2203  1  0.48601950  0.71908750  0.77983800  1
  H  H2204  1  0.48601950  0.96908750  0.02983800  1
  H  H2205  1  0.48601950  0.96908750  0.27983800  1
  H  H2206  1  0.48601950  0.96908750  0.52983800  1
  H  H2207  1  0.48601950  0.96908750  0.77983800  1
  H  H2208  1  0.73601950  0.21908750  0.02983800  1
  H  H2209  1  0.73601950  0.21908750  0.27983800  1
  H  H2210  1  0.73601950  0.21908750  0.52983800  1
  H  H2211  1  0.73601950  0.21908750  0.77983800  1
  H  H2212  1  0.73601950  0.46908750  0.02983800  1
  H  H2213  1  0.73601950  0.46908750  0.27983800  1
  H  H2214  1  0.73601950  0.46908750  0.52983800  1
  H  H2215  1  0.73601950  0.46908750  0.77983800  1
  H  H2216  1  0.73601950  0.71908750  0.02983800  1
  H  H2217  1  0.73601950  0.71908750  0.27983800  1
  H  H2218  1  0.73601950  0.71908750  0.52983800  1
  H  H2219  1  0.73601950  0.71908750  0.77983800  1
  H  H2220  1  0.73601950  0.96908750  0.02983800  1
  H  H2221  1  0.73601950  0.96908750  0.27983800  1
  H  H2222  1  0.73601950  0.96908750  0.52983800  1
  H  H2223  1  0.73601950  0.96908750  0.77983800  1
  H  H2224  1  0.98601950  0.21908750  0.02983800  1
  H  H2225  1  0.98601950  0.21908750  0.27983800  1
  H  H2226  1  0.98601950  0.21908750  0.52983800  1
  H  H2227  1  0.98601950  0.21908750  0.77983800  1
  H  H2228  1  0.98601950  0.46908750  0.02983800  1
  H  H2229  1  0.98601950  0.46908750  0.27983800  1
  H  H2230  1  0.98601950  0.46908750  0.52983800  1
  H  H2231  1  0.98601950  0.46908750  0.77983800  1
  H  H2232  1  0.98601950  0.71908750  0.02983800  1
  H  H2233  1  0.98601950  0.71908750  0.27983800  1
  H  H2234  1  0.98601950  0.71908750  0.52983800  1
  H  H2235  1  0.98601950  0.71908750  0.77983800  1
  H  H2236  1  0.98601950  0.96908750  0.02983800  1
  H  H2237  1  0.98601950  0.96908750  0.27983800  1
  H  H2238  1  0.98601950  0.96908750  0.52983800  1
  H  H2239  1  0.98601950  0.96908750  0.77983800  1
  H  H2240  1  0.01398050  0.03091250  0.22016200  1
  H  H2241  1  0.01398050  0.03091250  0.47016200  1
  H  H2242  1  0.01398050  0.03091250  0.72016200  1
  H  H2243  1  0.01398050  0.03091250  0.97016200  1
  H  H2244  1  0.01398050  0.28091250  0.22016200  1
  H  H2245  1  0.01398050  0.28091250  0.47016200  1
  H  H2246  1  0.01398050  0.28091250  0.72016200  1
  H  H2247  1  0.01398050  0.28091250  0.97016200  1
  H  H2248  1  0.01398050  0.53091250  0.22016200  1
  H  H2249  1  0.01398050  0.53091250  0.47016200  1
  H  H2250  1  0.01398050  0.53091250  0.72016200  1
  H  H2251  1  0.01398050  0.53091250  0.97016200  1
  H  H2252  1  0.01398050  0.78091250  0.22016200  1
  H  H2253  1  0.01398050  0.78091250  0.47016200  1
  H  H2254  1  0.01398050  0.78091250  0.72016200  1
  H  H2255  1  0.01398050  0.78091250  0.97016200  1
  H  H2256  1  0.26398050  0.03091250  0.22016200  1
  H  H2257  1  0.26398050  0.03091250  0.47016200  1
  H  H2258  1  0.26398050  0.03091250  0.72016200  1
  H  H2259  1  0.26398050  0.03091250  0.97016200  1
  H  H2260  1  0.26398050  0.28091250  0.22016200  1
  H  H2261  1  0.26398050  0.28091250  0.47016200  1
  H  H2262  1  0.26398050  0.28091250  0.72016200  1
  H  H2263  1  0.26398050  0.28091250  0.97016200  1
  H  H2264  1  0.26398050  0.53091250  0.22016200  1
  H  H2265  1  0.26398050  0.53091250  0.47016200  1
  H  H2266  1  0.26398050  0.53091250  0.72016200  1
  H  H2267  1  0.26398050  0.53091250  0.97016200  1
  H  H2268  1  0.26398050  0.78091250  0.22016200  1
  H  H2269  1  0.26398050  0.78091250  0.47016200  1
  H  H2270  1  0.26398050  0.78091250  0.72016200  1
  H  H2271  1  0.26398050  0.78091250  0.97016200  1
  H  H2272  1  0.51398050  0.03091250  0.22016200  1
  H  H2273  1  0.51398050  0.03091250  0.47016200  1
  H  H2274  1  0.51398050  0.03091250  0.72016200  1
  H  H2275  1  0.51398050  0.03091250  0.97016200  1
  H  H2276  1  0.51398050  0.28091250  0.22016200  1
  H  H2277  1  0.51398050  0.28091250  0.47016200  1
  H  H2278  1  0.51398050  0.28091250  0.72016200  1
  H  H2279  1  0.51398050  0.28091250  0.97016200  1
  H  H2280  1  0.51398050  0.53091250  0.22016200  1
  H  H2281  1  0.51398050  0.53091250  0.47016200  1
  H  H2282  1  0.51398050  0.53091250  0.72016200  1
  H  H2283  1  0.51398050  0.53091250  0.97016200  1
  H  H2284  1  0.51398050  0.78091250  0.22016200  1
  H  H2285  1  0.51398050  0.78091250  0.47016200  1
  H  H2286  1  0.51398050  0.78091250  0.72016200  1
  H  H2287  1  0.51398050  0.78091250  0.97016200  1
  H  H2288  1  0.76398050  0.03091250  0.22016200  1
  H  H2289  1  0.76398050  0.03091250  0.47016200  1
  H  H2290  1  0.76398050  0.03091250  0.72016200  1
  H  H2291  1  0.76398050  0.03091250  0.97016200  1
  H  H2292  1  0.76398050  0.28091250  0.22016200  1
  H  H2293  1  0.76398050  0.28091250  0.47016200  1
  H  H2294  1  0.76398050  0.28091250  0.72016200  1
  H  H2295  1  0.76398050  0.28091250  0.97016200  1
  H  H2296  1  0.76398050  0.53091250  0.22016200  1
  H  H2297  1  0.76398050  0.53091250  0.47016200  1
  H  H2298  1  0.76398050  0.53091250  0.72016200  1
  H  H2299  1  0.76398050  0.53091250  0.97016200  1
  H  H2300  1  0.76398050  0.78091250  0.22016200  1
  H  H2301  1  0.76398050  0.78091250  0.47016200  1
  H  H2302  1  0.76398050  0.78091250  0.72016200  1
  H  H2303  1  0.76398050  0.78091250  0.97016200  1
  H  H2304  1  0.19111675  0.02741250  0.24813250  1
  H  H2305  1  0.19111675  0.02741250  0.49813250  1
  H  H2306  1  0.19111675  0.02741250  0.74813250  1
  H  H2307  1  0.19111675  0.02741250  0.99813250  1
  H  H2308  1  0.19111675  0.27741250  0.24813250  1
  H  H2309  1  0.19111675  0.27741250  0.49813250  1
  H  H2310  1  0.19111675  0.27741250  0.74813250  1
  H  H2311  1  0.19111675  0.27741250  0.99813250  1
  H  H2312  1  0.19111675  0.52741250  0.24813250  1
  H  H2313  1  0.19111675  0.52741250  0.49813250  1
  H  H2314  1  0.19111675  0.52741250  0.74813250  1
  H  H2315  1  0.19111675  0.52741250  0.99813250  1
  H  H2316  1  0.19111675  0.77741250  0.24813250  1
  H  H2317  1  0.19111675  0.77741250  0.49813250  1
  H  H2318  1  0.19111675  0.77741250  0.74813250  1
  H  H2319  1  0.19111675  0.77741250  0.99813250  1
  H  H2320  1  0.44111675  0.02741250  0.24813250  1
  H  H2321  1  0.44111675  0.02741250  0.49813250  1
  H  H2322  1  0.44111675  0.02741250  0.74813250  1
  H  H2323  1  0.44111675  0.02741250  0.99813250  1
  H  H2324  1  0.44111675  0.27741250  0.24813250  1
  H  H2325  1  0.44111675  0.27741250  0.49813250  1
  H  H2326  1  0.44111675  0.27741250  0.74813250  1
  H  H2327  1  0.44111675  0.27741250  0.99813250  1
  H  H2328  1  0.44111675  0.52741250  0.24813250  1
  H  H2329  1  0.44111675  0.52741250  0.49813250  1
  H  H2330  1  0.44111675  0.52741250  0.74813250  1
  H  H2331  1  0.44111675  0.52741250  0.99813250  1
  H  H2332  1  0.44111675  0.77741250  0.24813250  1
  H  H2333  1  0.44111675  0.77741250  0.49813250  1
  H  H2334  1  0.44111675  0.77741250  0.74813250  1
  H  H2335  1  0.44111675  0.77741250  0.99813250  1
  H  H2336  1  0.69111675  0.02741250  0.24813250  1
  H  H2337  1  0.69111675  0.02741250  0.49813250  1
  H  H2338  1  0.69111675  0.02741250  0.74813250  1
  H  H2339  1  0.69111675  0.02741250  0.99813250  1
  H  H2340  1  0.69111675  0.27741250  0.24813250  1
  H  H2341  1  0.69111675  0.27741250  0.49813250  1
  H  H2342  1  0.69111675  0.27741250  0.74813250  1
  H  H2343  1  0.69111675  0.27741250  0.99813250  1
  H  H2344  1  0.69111675  0.52741250  0.24813250  1
  H  H2345  1  0.69111675  0.52741250  0.49813250  1
  H  H2346  1  0.69111675  0.52741250  0.74813250  1
  H  H2347  1  0.69111675  0.52741250  0.99813250  1
  H  H2348  1  0.69111675  0.77741250  0.24813250  1
  H  H2349  1  0.69111675  0.77741250  0.49813250  1
  H  H2350  1  0.69111675  0.77741250  0.74813250  1
  H  H2351  1  0.69111675  0.77741250  0.99813250  1
  H  H2352  1  0.94111675  0.02741250  0.24813250  1
  H  H2353  1  0.94111675  0.02741250  0.49813250  1
  H  H2354  1  0.94111675  0.02741250  0.74813250  1
  H  H2355  1  0.94111675  0.02741250  0.99813250  1
  H  H2356  1  0.94111675  0.27741250  0.24813250  1
  H  H2357  1  0.94111675  0.27741250  0.49813250  1
  H  H2358  1  0.94111675  0.27741250  0.74813250  1
  H  H2359  1  0.94111675  0.27741250  0.99813250  1
  H  H2360  1  0.94111675  0.52741250  0.24813250  1
  H  H2361  1  0.94111675  0.52741250  0.49813250  1
  H  H2362  1  0.94111675  0.52741250  0.74813250  1
  H  H2363  1  0.94111675  0.52741250  0.99813250  1
  H  H2364  1  0.94111675  0.77741250  0.24813250  1
  H  H2365  1  0.94111675  0.77741250  0.49813250  1
  H  H2366  1  0.94111675  0.77741250  0.74813250  1
  H  H2367  1  0.94111675  0.77741250  0.99813250  1
  H  H2368  1  0.05888325  0.22258750  0.00186750  1
  H  H2369  1  0.05888325  0.22258750  0.25186750  1
  H  H2370  1  0.05888325  0.22258750  0.50186750  1
  H  H2371  1  0.05888325  0.22258750  0.75186750  1
  H  H2372  1  0.05888325  0.47258750  0.00186750  1
  H  H2373  1  0.05888325  0.47258750  0.25186750  1
  H  H2374  1  0.05888325  0.47258750  0.50186750  1
  H  H2375  1  0.05888325  0.47258750  0.75186750  1
  H  H2376  1  0.05888325  0.72258750  0.00186750  1
  H  H2377  1  0.05888325  0.72258750  0.25186750  1
  H  H2378  1  0.05888325  0.72258750  0.50186750  1
  H  H2379  1  0.05888325  0.72258750  0.75186750  1
  H  H2380  1  0.05888325  0.97258750  0.00186750  1
  H  H2381  1  0.05888325  0.97258750  0.25186750  1
  H  H2382  1  0.05888325  0.97258750  0.50186750  1
  H  H2383  1  0.05888325  0.97258750  0.75186750  1
  H  H2384  1  0.30888325  0.22258750  0.00186750  1
  H  H2385  1  0.30888325  0.22258750  0.25186750  1
  H  H2386  1  0.30888325  0.22258750  0.50186750  1
  H  H2387  1  0.30888325  0.22258750  0.75186750  1
  H  H2388  1  0.30888325  0.47258750  0.00186750  1
  H  H2389  1  0.30888325  0.47258750  0.25186750  1
  H  H2390  1  0.30888325  0.47258750  0.50186750  1
  H  H2391  1  0.30888325  0.47258750  0.75186750  1
  H  H2392  1  0.30888325  0.72258750  0.00186750  1
  H  H2393  1  0.30888325  0.72258750  0.25186750  1
  H  H2394  1  0.30888325  0.72258750  0.50186750  1
  H  H2395  1  0.30888325  0.72258750  0.75186750  1
  H  H2396  1  0.30888325  0.97258750  0.00186750  1
  H  H2397  1  0.30888325  0.97258750  0.25186750  1
  H  H2398  1  0.30888325  0.97258750  0.50186750  1
  H  H2399  1  0.30888325  0.97258750  0.75186750  1
  H  H2400  1  0.55888325  0.22258750  0.00186750  1
  H  H2401  1  0.55888325  0.22258750  0.25186750  1
  H  H2402  1  0.55888325  0.22258750  0.50186750  1
  H  H2403  1  0.55888325  0.22258750  0.75186750  1
  H  H2404  1  0.55888325  0.47258750  0.00186750  1
  H  H2405  1  0.55888325  0.47258750  0.25186750  1
  H  H2406  1  0.55888325  0.47258750  0.50186750  1
  H  H2407  1  0.55888325  0.47258750  0.75186750  1
  H  H2408  1  0.55888325  0.72258750  0.00186750  1
  H  H2409  1  0.55888325  0.72258750  0.25186750  1
  H  H2410  1  0.55888325  0.72258750  0.50186750  1
  H  H2411  1  0.55888325  0.72258750  0.75186750  1
  H  H2412  1  0.55888325  0.97258750  0.00186750  1
  H  H2413  1  0.55888325  0.97258750  0.25186750  1
  H  H2414  1  0.55888325  0.97258750  0.50186750  1
  H  H2415  1  0.55888325  0.97258750  0.75186750  1
  H  H2416  1  0.80888325  0.22258750  0.00186750  1
  H  H2417  1  0.80888325  0.22258750  0.25186750  1
  H  H2418  1  0.80888325  0.22258750  0.50186750  1
  H  H2419  1  0.80888325  0.22258750  0.75186750  1
  H  H2420  1  0.80888325  0.47258750  0.00186750  1
  H  H2421  1  0.80888325  0.47258750  0.25186750  1
  H  H2422  1  0.80888325  0.47258750  0.50186750  1
  H  H2423  1  0.80888325  0.47258750  0.75186750  1
  H  H2424  1  0.80888325  0.72258750  0.00186750  1
  H  H2425  1  0.80888325  0.72258750  0.25186750  1
  H  H2426  1  0.80888325  0.72258750  0.50186750  1
  H  H2427  1  0.80888325  0.72258750  0.75186750  1
  H  H2428  1  0.80888325  0.97258750  0.00186750  1
  H  H2429  1  0.80888325  0.97258750  0.25186750  1
  H  H2430  1  0.80888325  0.97258750  0.50186750  1
  H  H2431  1  0.80888325  0.97258750  0.75186750  1
  H  H2432  1  0.18864450  0.23946700  0.22733925  1
  H  H2433  1  0.18864450  0.23946700  0.47733925  1
  H  H2434  1  0.18864450  0.23946700  0.72733925  1
  H  H2435  1  0.18864450  0.23946700  0.97733925  1
  H  H2436  1  0.18864450  0.48946700  0.22733925  1
  H  H2437  1  0.18864450  0.48946700  0.47733925  1
  H  H2438  1  0.18864450  0.48946700  0.72733925  1
  H  H2439  1  0.18864450  0.48946700  0.97733925  1
  H  H2440  1  0.18864450  0.73946700  0.22733925  1
  H  H2441  1  0.18864450  0.73946700  0.47733925  1
  H  H2442  1  0.18864450  0.73946700  0.72733925  1
  H  H2443  1  0.18864450  0.73946700  0.97733925  1
  H  H2444  1  0.18864450  0.98946700  0.22733925  1
  H  H2445  1  0.18864450  0.98946700  0.47733925  1
  H  H2446  1  0.18864450  0.98946700  0.72733925  1
  H  H2447  1  0.18864450  0.98946700  0.97733925  1
  H  H2448  1  0.43864450  0.23946700  0.22733925  1
  H  H2449  1  0.43864450  0.23946700  0.47733925  1
  H  H2450  1  0.43864450  0.23946700  0.72733925  1
  H  H2451  1  0.43864450  0.23946700  0.97733925  1
  H  H2452  1  0.43864450  0.48946700  0.22733925  1
  H  H2453  1  0.43864450  0.48946700  0.47733925  1
  H  H2454  1  0.43864450  0.48946700  0.72733925  1
  H  H2455  1  0.43864450  0.48946700  0.97733925  1
  H  H2456  1  0.43864450  0.73946700  0.22733925  1
  H  H2457  1  0.43864450  0.73946700  0.47733925  1
  H  H2458  1  0.43864450  0.73946700  0.72733925  1
  H  H2459  1  0.43864450  0.73946700  0.97733925  1
  H  H2460  1  0.43864450  0.98946700  0.22733925  1
  H  H2461  1  0.43864450  0.98946700  0.47733925  1
  H  H2462  1  0.43864450  0.98946700  0.72733925  1
  H  H2463  1  0.43864450  0.98946700  0.97733925  1
  H  H2464  1  0.68864450  0.23946700  0.22733925  1
  H  H2465  1  0.68864450  0.23946700  0.47733925  1
  H  H2466  1  0.68864450  0.23946700  0.72733925  1
  H  H2467  1  0.68864450  0.23946700  0.97733925  1
  H  H2468  1  0.68864450  0.48946700  0.22733925  1
  H  H2469  1  0.68864450  0.48946700  0.47733925  1
  H  H2470  1  0.68864450  0.48946700  0.72733925  1
  H  H2471  1  0.68864450  0.48946700  0.97733925  1
  H  H2472  1  0.68864450  0.73946700  0.22733925  1
  H  H2473  1  0.68864450  0.73946700  0.47733925  1
  H  H2474  1  0.68864450  0.73946700  0.72733925  1
  H  H2475  1  0.68864450  0.73946700  0.97733925  1
  H  H2476  1  0.68864450  0.98946700  0.22733925  1
  H  H2477  1  0.68864450  0.98946700  0.47733925  1
  H  H2478  1  0.68864450  0.98946700  0.72733925  1
  H  H2479  1  0.68864450  0.98946700  0.97733925  1
  H  H2480  1  0.93864450  0.23946700  0.22733925  1
  H  H2481  1  0.93864450  0.23946700  0.47733925  1
  H  H2482  1  0.93864450  0.23946700  0.72733925  1
  H  H2483  1  0.93864450  0.23946700  0.97733925  1
  H  H2484  1  0.93864450  0.48946700  0.22733925  1
  H  H2485  1  0.93864450  0.48946700  0.47733925  1
  H  H2486  1  0.93864450  0.48946700  0.72733925  1
  H  H2487  1  0.93864450  0.48946700  0.97733925  1
  H  H2488  1  0.93864450  0.73946700  0.22733925  1
  H  H2489  1  0.93864450  0.73946700  0.47733925  1
  H  H2490  1  0.93864450  0.73946700  0.72733925  1
  H  H2491  1  0.93864450  0.73946700  0.97733925  1
  H  H2492  1  0.93864450  0.98946700  0.22733925  1
  H  H2493  1  0.93864450  0.98946700  0.47733925  1
  H  H2494  1  0.93864450  0.98946700  0.72733925  1
  H  H2495  1  0.93864450  0.98946700  0.97733925  1
  H  H2496  1  0.06135550  0.01053300  0.02266075  1
  H  H2497  1  0.06135550  0.01053300  0.27266075  1
  H  H2498  1  0.06135550  0.01053300  0.52266075  1
  H  H2499  1  0.06135550  0.01053300  0.77266075  1
  H  H2500  1  0.06135550  0.26053300  0.02266075  1
  H  H2501  1  0.06135550  0.26053300  0.27266075  1
  H  H2502  1  0.06135550  0.26053300  0.52266075  1
  H  H2503  1  0.06135550  0.26053300  0.77266075  1
  H  H2504  1  0.06135550  0.51053300  0.02266075  1
  H  H2505  1  0.06135550  0.51053300  0.27266075  1
  H  H2506  1  0.06135550  0.51053300  0.52266075  1
  H  H2507  1  0.06135550  0.51053300  0.77266075  1
  H  H2508  1  0.06135550  0.76053300  0.02266075  1
  H  H2509  1  0.06135550  0.76053300  0.27266075  1
  H  H2510  1  0.06135550  0.76053300  0.52266075  1
  H  H2511  1  0.06135550  0.76053300  0.77266075  1
  H  H2512  1  0.31135550  0.01053300  0.02266075  1
  H  H2513  1  0.31135550  0.01053300  0.27266075  1
  H  H2514  1  0.31135550  0.01053300  0.52266075  1
  H  H2515  1  0.31135550  0.01053300  0.77266075  1
  H  H2516  1  0.31135550  0.26053300  0.02266075  1
  H  H2517  1  0.31135550  0.26053300  0.27266075  1
  H  H2518  1  0.31135550  0.26053300  0.52266075  1
  H  H2519  1  0.31135550  0.26053300  0.77266075  1
  H  H2520  1  0.31135550  0.51053300  0.02266075  1
  H  H2521  1  0.31135550  0.51053300  0.27266075  1
  H  H2522  1  0.31135550  0.51053300  0.52266075  1
  H  H2523  1  0.31135550  0.51053300  0.77266075  1
  H  H2524  1  0.31135550  0.76053300  0.02266075  1
  H  H2525  1  0.31135550  0.76053300  0.27266075  1
  H  H2526  1  0.31135550  0.76053300  0.52266075  1
  H  H2527  1  0.31135550  0.76053300  0.77266075  1
  H  H2528  1  0.56135550  0.01053300  0.02266075  1
  H  H2529  1  0.56135550  0.01053300  0.27266075  1
  H  H2530  1  0.56135550  0.01053300  0.52266075  1
  H  H2531  1  0.56135550  0.01053300  0.77266075  1
  H  H2532  1  0.56135550  0.26053300  0.02266075  1
  H  H2533  1  0.56135550  0.26053300  0.27266075  1
  H  H2534  1  0.56135550  0.26053300  0.52266075  1
  H  H2535  1  0.56135550  0.26053300  0.77266075  1
  H  H2536  1  0.56135550  0.51053300  0.02266075  1
  H  H2537  1  0.56135550  0.51053300  0.27266075  1
  H  H2538  1  0.56135550  0.51053300  0.52266075  1
  H  H2539  1  0.56135550  0.51053300  0.77266075  1
  H  H2540  1  0.56135550  0.76053300  0.02266075  1
  H  H2541  1  0.56135550  0.76053300  0.27266075  1
  H  H2542  1  0.56135550  0.76053300  0.52266075  1
  H  H2543  1  0.56135550  0.76053300  0.77266075  1
  H  H2544  1  0.81135550  0.01053300  0.02266075  1
  H  H2545  1  0.81135550  0.01053300  0.27266075  1
  H  H2546  1  0.81135550  0.01053300  0.52266075  1
  H  H2547  1  0.81135550  0.01053300  0.77266075  1
  H  H2548  1  0.81135550  0.26053300  0.02266075  1
  H  H2549  1  0.81135550  0.26053300  0.27266075  1
  H  H2550  1  0.81135550  0.26053300  0.52266075  1
  H  H2551  1  0.81135550  0.26053300  0.77266075  1
  H  H2552  1  0.81135550  0.51053300  0.02266075  1
  H  H2553  1  0.81135550  0.51053300  0.27266075  1
  H  H2554  1  0.81135550  0.51053300  0.52266075  1
  H  H2555  1  0.81135550  0.51053300  0.77266075  1
  H  H2556  1  0.81135550  0.76053300  0.02266075  1
  H  H2557  1  0.81135550  0.76053300  0.27266075  1
  H  H2558  1  0.81135550  0.76053300  0.52266075  1
  H  H2559  1  0.81135550  0.76053300  0.77266075  1
  H  H2560  1  0.14766600  0.24147500  0.23207875  1
  H  H2561  1  0.14766600  0.24147500  0.48207875  1
  H  H2562  1  0.14766600  0.24147500  0.73207875  1
  H  H2563  1  0.14766600  0.24147500  0.98207875  1
  H  H2564  1  0.14766600  0.49147500  0.23207875  1
  H  H2565  1  0.14766600  0.49147500  0.48207875  1
  H  H2566  1  0.14766600  0.49147500  0.73207875  1
  H  H2567  1  0.14766600  0.49147500  0.98207875  1
  H  H2568  1  0.14766600  0.74147500  0.23207875  1
  H  H2569  1  0.14766600  0.74147500  0.48207875  1
  H  H2570  1  0.14766600  0.74147500  0.73207875  1
  H  H2571  1  0.14766600  0.74147500  0.98207875  1
  H  H2572  1  0.14766600  0.99147500  0.23207875  1
  H  H2573  1  0.14766600  0.99147500  0.48207875  1
  H  H2574  1  0.14766600  0.99147500  0.73207875  1
  H  H2575  1  0.14766600  0.99147500  0.98207875  1
  H  H2576  1  0.39766600  0.24147500  0.23207875  1
  H  H2577  1  0.39766600  0.24147500  0.48207875  1
  H  H2578  1  0.39766600  0.24147500  0.73207875  1
  H  H2579  1  0.39766600  0.24147500  0.98207875  1
  H  H2580  1  0.39766600  0.49147500  0.23207875  1
  H  H2581  1  0.39766600  0.49147500  0.48207875  1
  H  H2582  1  0.39766600  0.49147500  0.73207875  1
  H  H2583  1  0.39766600  0.49147500  0.98207875  1
  H  H2584  1  0.39766600  0.74147500  0.23207875  1
  H  H2585  1  0.39766600  0.74147500  0.48207875  1
  H  H2586  1  0.39766600  0.74147500  0.73207875  1
  H  H2587  1  0.39766600  0.74147500  0.98207875  1
  H  H2588  1  0.39766600  0.99147500  0.23207875  1
  H  H2589  1  0.39766600  0.99147500  0.48207875  1
  H  H2590  1  0.39766600  0.99147500  0.73207875  1
  H  H2591  1  0.39766600  0.99147500  0.98207875  1
  H  H2592  1  0.64766600  0.24147500  0.23207875  1
  H  H2593  1  0.64766600  0.24147500  0.48207875  1
  H  H2594  1  0.64766600  0.24147500  0.73207875  1
  H  H2595  1  0.64766600  0.24147500  0.98207875  1
  H  H2596  1  0.64766600  0.49147500  0.23207875  1
  H  H2597  1  0.64766600  0.49147500  0.48207875  1
  H  H2598  1  0.64766600  0.49147500  0.73207875  1
  H  H2599  1  0.64766600  0.49147500  0.98207875  1
  H  H2600  1  0.64766600  0.74147500  0.23207875  1
  H  H2601  1  0.64766600  0.74147500  0.48207875  1
  H  H2602  1  0.64766600  0.74147500  0.73207875  1
  H  H2603  1  0.64766600  0.74147500  0.98207875  1
  H  H2604  1  0.64766600  0.99147500  0.23207875  1
  H  H2605  1  0.64766600  0.99147500  0.48207875  1
  H  H2606  1  0.64766600  0.99147500  0.73207875  1
  H  H2607  1  0.64766600  0.99147500  0.98207875  1
  H  H2608  1  0.89766600  0.24147500  0.23207875  1
  H  H2609  1  0.89766600  0.24147500  0.48207875  1
  H  H2610  1  0.89766600  0.24147500  0.73207875  1
  H  H2611  1  0.89766600  0.24147500  0.98207875  1
  H  H2612  1  0.89766600  0.49147500  0.23207875  1
  H  H2613  1  0.89766600  0.49147500  0.48207875  1
  H  H2614  1  0.89766600  0.49147500  0.73207875  1
  H  H2615  1  0.89766600  0.49147500  0.98207875  1
  H  H2616  1  0.89766600  0.74147500  0.23207875  1
  H  H2617  1  0.89766600  0.74147500  0.48207875  1
  H  H2618  1  0.89766600  0.74147500  0.73207875  1
  H  H2619  1  0.89766600  0.74147500  0.98207875  1
  H  H2620  1  0.89766600  0.99147500  0.23207875  1
  H  H2621  1  0.89766600  0.99147500  0.48207875  1
  H  H2622  1  0.89766600  0.99147500  0.73207875  1
  H  H2623  1  0.89766600  0.99147500  0.98207875  1
  H  H2624  1  0.10233400  0.00852500  0.01792125  1
  H  H2625  1  0.10233400  0.00852500  0.26792125  1
  H  H2626  1  0.10233400  0.00852500  0.51792125  1
  H  H2627  1  0.10233400  0.00852500  0.76792125  1
  H  H2628  1  0.10233400  0.25852500  0.01792125  1
  H  H2629  1  0.10233400  0.25852500  0.26792125  1
  H  H2630  1  0.10233400  0.25852500  0.51792125  1
  H  H2631  1  0.10233400  0.25852500  0.76792125  1
  H  H2632  1  0.10233400  0.50852500  0.01792125  1
  H  H2633  1  0.10233400  0.50852500  0.26792125  1
  H  H2634  1  0.10233400  0.50852500  0.51792125  1
  H  H2635  1  0.10233400  0.50852500  0.76792125  1
  H  H2636  1  0.10233400  0.75852500  0.01792125  1
  H  H2637  1  0.10233400  0.75852500  0.26792125  1
  H  H2638  1  0.10233400  0.75852500  0.51792125  1
  H  H2639  1  0.10233400  0.75852500  0.76792125  1
  H  H2640  1  0.35233400  0.00852500  0.01792125  1
  H  H2641  1  0.35233400  0.00852500  0.26792125  1
  H  H2642  1  0.35233400  0.00852500  0.51792125  1
  H  H2643  1  0.35233400  0.00852500  0.76792125  1
  H  H2644  1  0.35233400  0.25852500  0.01792125  1
  H  H2645  1  0.35233400  0.25852500  0.26792125  1
  H  H2646  1  0.35233400  0.25852500  0.51792125  1
  H  H2647  1  0.35233400  0.25852500  0.76792125  1
  H  H2648  1  0.35233400  0.50852500  0.01792125  1
  H  H2649  1  0.35233400  0.50852500  0.26792125  1
  H  H2650  1  0.35233400  0.50852500  0.51792125  1
  H  H2651  1  0.35233400  0.50852500  0.76792125  1
  H  H2652  1  0.35233400  0.75852500  0.01792125  1
  H  H2653  1  0.35233400  0.75852500  0.26792125  1
  H  H2654  1  0.35233400  0.75852500  0.51792125  1
  H  H2655  1  0.35233400  0.75852500  0.76792125  1
  H  H2656  1  0.60233400  0.00852500  0.01792125  1
  H  H2657  1  0.60233400  0.00852500  0.26792125  1
  H  H2658  1  0.60233400  0.00852500  0.51792125  1
  H  H2659  1  0.60233400  0.00852500  0.76792125  1
  H  H2660  1  0.60233400  0.25852500  0.01792125  1
  H  H2661  1  0.60233400  0.25852500  0.26792125  1
  H  H2662  1  0.60233400  0.25852500  0.51792125  1
  H  H2663  1  0.60233400  0.25852500  0.76792125  1
  H  H2664  1  0.60233400  0.50852500  0.01792125  1
  H  H2665  1  0.60233400  0.50852500  0.26792125  1
  H  H2666  1  0.60233400  0.50852500  0.51792125  1
  H  H2667  1  0.60233400  0.50852500  0.76792125  1
  H  H2668  1  0.60233400  0.75852500  0.01792125  1
  H  H2669  1  0.60233400  0.75852500  0.26792125  1
  H  H2670  1  0.60233400  0.75852500  0.51792125  1
  H  H2671  1  0.60233400  0.75852500  0.76792125  1
  H  H2672  1  0.85233400  0.00852500  0.01792125  1
  H  H2673  1  0.85233400  0.00852500  0.26792125  1
  H  H2674  1  0.85233400  0.00852500  0.51792125  1
  H  H2675  1  0.85233400  0.00852500  0.76792125  1
  H  H2676  1  0.85233400  0.25852500  0.01792125  1
  H  H2677  1  0.85233400  0.25852500  0.26792125  1
  H  H2678  1  0.85233400  0.25852500  0.51792125  1
  H  H2679  1  0.85233400  0.25852500  0.76792125  1
  H  H2680  1  0.85233400  0.50852500  0.01792125  1
  H  H2681  1  0.85233400  0.50852500  0.26792125  1
  H  H2682  1  0.85233400  0.50852500  0.51792125  1
  H  H2683  1  0.85233400  0.50852500  0.76792125  1
  H  H2684  1  0.85233400  0.75852500  0.01792125  1
  H  H2685  1  0.85233400  0.75852500  0.26792125  1
  H  H2686  1  0.85233400  0.75852500  0.51792125  1
  H  H2687  1  0.85233400  0.75852500  0.76792125  1
  H  H2688  1  0.07375775  0.18401050  0.06060675  1
  H  H2689  1  0.07375775  0.18401050  0.31060675  1
  H  H2690  1  0.07375775  0.18401050  0.56060675  1
  H  H2691  1  0.07375775  0.18401050  0.81060675  1
  H  H2692  1  0.07375775  0.43401050  0.06060675  1
  H  H2693  1  0.07375775  0.43401050  0.31060675  1
  H  H2694  1  0.07375775  0.43401050  0.56060675  1
  H  H2695  1  0.07375775  0.43401050  0.81060675  1
  H  H2696  1  0.07375775  0.68401050  0.06060675  1
  H  H2697  1  0.07375775  0.68401050  0.31060675  1
  H  H2698  1  0.07375775  0.68401050  0.56060675  1
  H  H2699  1  0.07375775  0.68401050  0.81060675  1
  H  H2700  1  0.07375775  0.93401050  0.06060675  1
  H  H2701  1  0.07375775  0.93401050  0.31060675  1
  H  H2702  1  0.07375775  0.93401050  0.56060675  1
  H  H2703  1  0.07375775  0.93401050  0.81060675  1
  H  H2704  1  0.32375775  0.18401050  0.06060675  1
  H  H2705  1  0.32375775  0.18401050  0.31060675  1
  H  H2706  1  0.32375775  0.18401050  0.56060675  1
  H  H2707  1  0.32375775  0.18401050  0.81060675  1
  H  H2708  1  0.32375775  0.43401050  0.06060675  1
  H  H2709  1  0.32375775  0.43401050  0.31060675  1
  H  H2710  1  0.32375775  0.43401050  0.56060675  1
  H  H2711  1  0.32375775  0.43401050  0.81060675  1
  H  H2712  1  0.32375775  0.68401050  0.06060675  1
  H  H2713  1  0.32375775  0.68401050  0.31060675  1
  H  H2714  1  0.32375775  0.68401050  0.56060675  1
  H  H2715  1  0.32375775  0.68401050  0.81060675  1
  H  H2716  1  0.32375775  0.93401050  0.06060675  1
  H  H2717  1  0.32375775  0.93401050  0.31060675  1
  H  H2718  1  0.32375775  0.93401050  0.56060675  1
  H  H2719  1  0.32375775  0.93401050  0.81060675  1
  H  H2720  1  0.57375775  0.18401050  0.06060675  1
  H  H2721  1  0.57375775  0.18401050  0.31060675  1
  H  H2722  1  0.57375775  0.18401050  0.56060675  1
  H  H2723  1  0.57375775  0.18401050  0.81060675  1
  H  H2724  1  0.57375775  0.43401050  0.06060675  1
  H  H2725  1  0.57375775  0.43401050  0.31060675  1
  H  H2726  1  0.57375775  0.43401050  0.56060675  1
  H  H2727  1  0.57375775  0.43401050  0.81060675  1
  H  H2728  1  0.57375775  0.68401050  0.06060675  1
  H  H2729  1  0.57375775  0.68401050  0.31060675  1
  H  H2730  1  0.57375775  0.68401050  0.56060675  1
  H  H2731  1  0.57375775  0.68401050  0.81060675  1
  H  H2732  1  0.57375775  0.93401050  0.06060675  1
  H  H2733  1  0.57375775  0.93401050  0.31060675  1
  H  H2734  1  0.57375775  0.93401050  0.56060675  1
  H  H2735  1  0.57375775  0.93401050  0.81060675  1
  H  H2736  1  0.82375775  0.18401050  0.06060675  1
  H  H2737  1  0.82375775  0.18401050  0.31060675  1
  H  H2738  1  0.82375775  0.18401050  0.56060675  1
  H  H2739  1  0.82375775  0.18401050  0.81060675  1
  H  H2740  1  0.82375775  0.43401050  0.06060675  1
  H  H2741  1  0.82375775  0.43401050  0.31060675  1
  H  H2742  1  0.82375775  0.43401050  0.56060675  1
  H  H2743  1  0.82375775  0.43401050  0.81060675  1
  H  H2744  1  0.82375775  0.68401050  0.06060675  1
  H  H2745  1  0.82375775  0.68401050  0.31060675  1
  H  H2746  1  0.82375775  0.68401050  0.56060675  1
  H  H2747  1  0.82375775  0.68401050  0.81060675  1
  H  H2748  1  0.82375775  0.93401050  0.06060675  1
  H  H2749  1  0.82375775  0.93401050  0.31060675  1
  H  H2750  1  0.82375775  0.93401050  0.56060675  1
  H  H2751  1  0.82375775  0.93401050  0.81060675  1
  H  H2752  1  0.17624225  0.06598950  0.18939325  1
  H  H2753  1  0.17624225  0.06598950  0.43939325  1
  H  H2754  1  0.17624225  0.06598950  0.68939325  1
  H  H2755  1  0.17624225  0.06598950  0.93939325  1
  H  H2756  1  0.17624225  0.31598950  0.18939325  1
  H  H2757  1  0.17624225  0.31598950  0.43939325  1
  H  H2758  1  0.17624225  0.31598950  0.68939325  1
  H  H2759  1  0.17624225  0.31598950  0.93939325  1
  H  H2760  1  0.17624225  0.56598950  0.18939325  1
  H  H2761  1  0.17624225  0.56598950  0.43939325  1
  H  H2762  1  0.17624225  0.56598950  0.68939325  1
  H  H2763  1  0.17624225  0.56598950  0.93939325  1
  H  H2764  1  0.17624225  0.81598950  0.18939325  1
  H  H2765  1  0.17624225  0.81598950  0.43939325  1
  H  H2766  1  0.17624225  0.81598950  0.68939325  1
  H  H2767  1  0.17624225  0.81598950  0.93939325  1
  H  H2768  1  0.42624225  0.06598950  0.18939325  1
  H  H2769  1  0.42624225  0.06598950  0.43939325  1
  H  H2770  1  0.42624225  0.06598950  0.68939325  1
  H  H2771  1  0.42624225  0.06598950  0.93939325  1
  H  H2772  1  0.42624225  0.31598950  0.18939325  1
  H  H2773  1  0.42624225  0.31598950  0.43939325  1
  H  H2774  1  0.42624225  0.31598950  0.68939325  1
  H  H2775  1  0.42624225  0.31598950  0.93939325  1
  H  H2776  1  0.42624225  0.56598950  0.18939325  1
  H  H2777  1  0.42624225  0.56598950  0.43939325  1
  H  H2778  1  0.42624225  0.56598950  0.68939325  1
  H  H2779  1  0.42624225  0.56598950  0.93939325  1
  H  H2780  1  0.42624225  0.81598950  0.18939325  1
  H  H2781  1  0.42624225  0.81598950  0.43939325  1
  H  H2782  1  0.42624225  0.81598950  0.68939325  1
  H  H2783  1  0.42624225  0.81598950  0.93939325  1
  H  H2784  1  0.67624225  0.06598950  0.18939325  1
  H  H2785  1  0.67624225  0.06598950  0.43939325  1
  H  H2786  1  0.67624225  0.06598950  0.68939325  1
  H  H2787  1  0.67624225  0.06598950  0.93939325  1
  H  H2788  1  0.67624225  0.31598950  0.18939325  1
  H  H2789  1  0.67624225  0.31598950  0.43939325  1
  H  H2790  1  0.67624225  0.31598950  0.68939325  1
  H  H2791  1  0.67624225  0.31598950  0.93939325  1
  H  H2792  1  0.67624225  0.56598950  0.18939325  1
  H  H2793  1  0.67624225  0.56598950  0.43939325  1
  H  H2794  1  0.67624225  0.56598950  0.68939325  1
  H  H2795  1  0.67624225  0.56598950  0.93939325  1
  H  H2796  1  0.67624225  0.81598950  0.18939325  1
  H  H2797  1  0.67624225  0.81598950  0.43939325  1
  H  H2798  1  0.67624225  0.81598950  0.68939325  1
  H  H2799  1  0.67624225  0.81598950  0.93939325  1
  H  H2800  1  0.92624225  0.06598950  0.18939325  1
  H  H2801  1  0.92624225  0.06598950  0.43939325  1
  H  H2802  1  0.92624225  0.06598950  0.68939325  1
  H  H2803  1  0.92624225  0.06598950  0.93939325  1
  H  H2804  1  0.92624225  0.31598950  0.18939325  1
  H  H2805  1  0.92624225  0.31598950  0.43939325  1
  H  H2806  1  0.92624225  0.31598950  0.68939325  1
  H  H2807  1  0.92624225  0.31598950  0.93939325  1
  H  H2808  1  0.92624225  0.56598950  0.18939325  1
  H  H2809  1  0.92624225  0.56598950  0.43939325  1
  H  H2810  1  0.92624225  0.56598950  0.68939325  1
  H  H2811  1  0.92624225  0.56598950  0.93939325  1
  H  H2812  1  0.92624225  0.81598950  0.18939325  1
  H  H2813  1  0.92624225  0.81598950  0.43939325  1
  H  H2814  1  0.92624225  0.81598950  0.68939325  1
  H  H2815  1  0.92624225  0.81598950  0.93939325  1
  H  H2816  1  0.03319675  0.18045225  0.04593325  1
  H  H2817  1  0.03319675  0.18045225  0.29593325  1
  H  H2818  1  0.03319675  0.18045225  0.54593325  1
  H  H2819  1  0.03319675  0.18045225  0.79593325  1
  H  H2820  1  0.03319675  0.43045225  0.04593325  1
  H  H2821  1  0.03319675  0.43045225  0.29593325  1
  H  H2822  1  0.03319675  0.43045225  0.54593325  1
  H  H2823  1  0.03319675  0.43045225  0.79593325  1
  H  H2824  1  0.03319675  0.68045225  0.04593325  1
  H  H2825  1  0.03319675  0.68045225  0.29593325  1
  H  H2826  1  0.03319675  0.68045225  0.54593325  1
  H  H2827  1  0.03319675  0.68045225  0.79593325  1
  H  H2828  1  0.03319675  0.93045225  0.04593325  1
  H  H2829  1  0.03319675  0.93045225  0.29593325  1
  H  H2830  1  0.03319675  0.93045225  0.54593325  1
  H  H2831  1  0.03319675  0.93045225  0.79593325  1
  H  H2832  1  0.28319675  0.18045225  0.04593325  1
  H  H2833  1  0.28319675  0.18045225  0.29593325  1
  H  H2834  1  0.28319675  0.18045225  0.54593325  1
  H  H2835  1  0.28319675  0.18045225  0.79593325  1
  H  H2836  1  0.28319675  0.43045225  0.04593325  1
  H  H2837  1  0.28319675  0.43045225  0.29593325  1
  H  H2838  1  0.28319675  0.43045225  0.54593325  1
  H  H2839  1  0.28319675  0.43045225  0.79593325  1
  H  H2840  1  0.28319675  0.68045225  0.04593325  1
  H  H2841  1  0.28319675  0.68045225  0.29593325  1
  H  H2842  1  0.28319675  0.68045225  0.54593325  1
  H  H2843  1  0.28319675  0.68045225  0.79593325  1
  H  H2844  1  0.28319675  0.93045225  0.04593325  1
  H  H2845  1  0.28319675  0.93045225  0.29593325  1
  H  H2846  1  0.28319675  0.93045225  0.54593325  1
  H  H2847  1  0.28319675  0.93045225  0.79593325  1
  H  H2848  1  0.53319675  0.18045225  0.04593325  1
  H  H2849  1  0.53319675  0.18045225  0.29593325  1
  H  H2850  1  0.53319675  0.18045225  0.54593325  1
  H  H2851  1  0.53319675  0.18045225  0.79593325  1
  H  H2852  1  0.53319675  0.43045225  0.04593325  1
  H  H2853  1  0.53319675  0.43045225  0.29593325  1
  H  H2854  1  0.53319675  0.43045225  0.54593325  1
  H  H2855  1  0.53319675  0.43045225  0.79593325  1
  H  H2856  1  0.53319675  0.68045225  0.04593325  1
  H  H2857  1  0.53319675  0.68045225  0.29593325  1
  H  H2858  1  0.53319675  0.68045225  0.54593325  1
  H  H2859  1  0.53319675  0.68045225  0.79593325  1
  H  H2860  1  0.53319675  0.93045225  0.04593325  1
  H  H2861  1  0.53319675  0.93045225  0.29593325  1
  H  H2862  1  0.53319675  0.93045225  0.54593325  1
  H  H2863  1  0.53319675  0.93045225  0.79593325  1
  H  H2864  1  0.78319675  0.18045225  0.04593325  1
  H  H2865  1  0.78319675  0.18045225  0.29593325  1
  H  H2866  1  0.78319675  0.18045225  0.54593325  1
  H  H2867  1  0.78319675  0.18045225  0.79593325  1
  H  H2868  1  0.78319675  0.43045225  0.04593325  1
  H  H2869  1  0.78319675  0.43045225  0.29593325  1
  H  H2870  1  0.78319675  0.43045225  0.54593325  1
  H  H2871  1  0.78319675  0.43045225  0.79593325  1
  H  H2872  1  0.78319675  0.68045225  0.04593325  1
  H  H2873  1  0.78319675  0.68045225  0.29593325  1
  H  H2874  1  0.78319675  0.68045225  0.54593325  1
  H  H2875  1  0.78319675  0.68045225  0.79593325  1
  H  H2876  1  0.78319675  0.93045225  0.04593325  1
  H  H2877  1  0.78319675  0.93045225  0.29593325  1
  H  H2878  1  0.78319675  0.93045225  0.54593325  1
  H  H2879  1  0.78319675  0.93045225  0.79593325  1
  H  H2880  1  0.21680325  0.06954775  0.20406675  1
  H  H2881  1  0.21680325  0.06954775  0.45406675  1
  H  H2882  1  0.21680325  0.06954775  0.70406675  1
  H  H2883  1  0.21680325  0.06954775  0.95406675  1
  H  H2884  1  0.21680325  0.31954775  0.20406675  1
  H  H2885  1  0.21680325  0.31954775  0.45406675  1
  H  H2886  1  0.21680325  0.31954775  0.70406675  1
  H  H2887  1  0.21680325  0.31954775  0.95406675  1
  H  H2888  1  0.21680325  0.56954775  0.20406675  1
  H  H2889  1  0.21680325  0.56954775  0.45406675  1
  H  H2890  1  0.21680325  0.56954775  0.70406675  1
  H  H2891  1  0.21680325  0.56954775  0.95406675  1
  H  H2892  1  0.21680325  0.81954775  0.20406675  1
  H  H2893  1  0.21680325  0.81954775  0.45406675  1
  H  H2894  1  0.21680325  0.81954775  0.70406675  1
  H  H2895  1  0.21680325  0.81954775  0.95406675  1
  H  H2896  1  0.46680325  0.06954775  0.20406675  1
  H  H2897  1  0.46680325  0.06954775  0.45406675  1
  H  H2898  1  0.46680325  0.06954775  0.70406675  1
  H  H2899  1  0.46680325  0.06954775  0.95406675  1
  H  H2900  1  0.46680325  0.31954775  0.20406675  1
  H  H2901  1  0.46680325  0.31954775  0.45406675  1
  H  H2902  1  0.46680325  0.31954775  0.70406675  1
  H  H2903  1  0.46680325  0.31954775  0.95406675  1
  H  H2904  1  0.46680325  0.56954775  0.20406675  1
  H  H2905  1  0.46680325  0.56954775  0.45406675  1
  H  H2906  1  0.46680325  0.56954775  0.70406675  1
  H  H2907  1  0.46680325  0.56954775  0.95406675  1
  H  H2908  1  0.46680325  0.81954775  0.20406675  1
  H  H2909  1  0.46680325  0.81954775  0.45406675  1
  H  H2910  1  0.46680325  0.81954775  0.70406675  1
  H  H2911  1  0.46680325  0.81954775  0.95406675  1
  H  H2912  1  0.71680325  0.06954775  0.20406675  1
  H  H2913  1  0.71680325  0.06954775  0.45406675  1
  H  H2914  1  0.71680325  0.06954775  0.70406675  1
  H  H2915  1  0.71680325  0.06954775  0.95406675  1
  H  H2916  1  0.71680325  0.31954775  0.20406675  1
  H  H2917  1  0.71680325  0.31954775  0.45406675  1
  H  H2918  1  0.71680325  0.31954775  0.70406675  1
  H  H2919  1  0.71680325  0.31954775  0.95406675  1
  H  H2920  1  0.71680325  0.56954775  0.20406675  1
  H  H2921  1  0.71680325  0.56954775  0.45406675  1
  H  H2922  1  0.71680325  0.56954775  0.70406675  1
  H  H2923  1  0.71680325  0.56954775  0.95406675  1
  H  H2924  1  0.71680325  0.81954775  0.20406675  1
  H  H2925  1  0.71680325  0.81954775  0.45406675  1
  H  H2926  1  0.71680325  0.81954775  0.70406675  1
  H  H2927  1  0.71680325  0.81954775  0.95406675  1
  H  H2928  1  0.96680325  0.06954775  0.20406675  1
  H  H2929  1  0.96680325  0.06954775  0.45406675  1
  H  H2930  1  0.96680325  0.06954775  0.70406675  1
  H  H2931  1  0.96680325  0.06954775  0.95406675  1
  H  H2932  1  0.96680325  0.31954775  0.20406675  1
  H  H2933  1  0.96680325  0.31954775  0.45406675  1
  H  H2934  1  0.96680325  0.31954775  0.70406675  1
  H  H2935  1  0.96680325  0.31954775  0.95406675  1
  H  H2936  1  0.96680325  0.56954775  0.20406675  1
  H  H2937  1  0.96680325  0.56954775  0.45406675  1
  H  H2938  1  0.96680325  0.56954775  0.70406675  1
  H  H2939  1  0.96680325  0.56954775  0.95406675  1
  H  H2940  1  0.96680325  0.81954775  0.20406675  1
  H  H2941  1  0.96680325  0.81954775  0.45406675  1
  H  H2942  1  0.96680325  0.81954775  0.70406675  1
  H  H2943  1  0.96680325  0.81954775  0.95406675  1
  H  H2944  1  0.06752075  0.22387100  0.06267600  1
  H  H2945  1  0.06752075  0.22387100  0.31267600  1
  H  H2946  1  0.06752075  0.22387100  0.56267600  1
  H  H2947  1  0.06752075  0.22387100  0.81267600  1
  H  H2948  1  0.06752075  0.47387100  0.06267600  1
  H  H2949  1  0.06752075  0.47387100  0.31267600  1
  H  H2950  1  0.06752075  0.47387100  0.56267600  1
  H  H2951  1  0.06752075  0.47387100  0.81267600  1
  H  H2952  1  0.06752075  0.72387100  0.06267600  1
  H  H2953  1  0.06752075  0.72387100  0.31267600  1
  H  H2954  1  0.06752075  0.72387100  0.56267600  1
  H  H2955  1  0.06752075  0.72387100  0.81267600  1
  H  H2956  1  0.06752075  0.97387100  0.06267600  1
  H  H2957  1  0.06752075  0.97387100  0.31267600  1
  H  H2958  1  0.06752075  0.97387100  0.56267600  1
  H  H2959  1  0.06752075  0.97387100  0.81267600  1
  H  H2960  1  0.31752075  0.22387100  0.06267600  1
  H  H2961  1  0.31752075  0.22387100  0.31267600  1
  H  H2962  1  0.31752075  0.22387100  0.56267600  1
  H  H2963  1  0.31752075  0.22387100  0.81267600  1
  H  H2964  1  0.31752075  0.47387100  0.06267600  1
  H  H2965  1  0.31752075  0.47387100  0.31267600  1
  H  H2966  1  0.31752075  0.47387100  0.56267600  1
  H  H2967  1  0.31752075  0.47387100  0.81267600  1
  H  H2968  1  0.31752075  0.72387100  0.06267600  1
  H  H2969  1  0.31752075  0.72387100  0.31267600  1
  H  H2970  1  0.31752075  0.72387100  0.56267600  1
  H  H2971  1  0.31752075  0.72387100  0.81267600  1
  H  H2972  1  0.31752075  0.97387100  0.06267600  1
  H  H2973  1  0.31752075  0.97387100  0.31267600  1
  H  H2974  1  0.31752075  0.97387100  0.56267600  1
  H  H2975  1  0.31752075  0.97387100  0.81267600  1
  H  H2976  1  0.56752075  0.22387100  0.06267600  1
  H  H2977  1  0.56752075  0.22387100  0.31267600  1
  H  H2978  1  0.56752075  0.22387100  0.56267600  1
  H  H2979  1  0.56752075  0.22387100  0.81267600  1
  H  H2980  1  0.56752075  0.47387100  0.06267600  1
  H  H2981  1  0.56752075  0.47387100  0.31267600  1
  H  H2982  1  0.56752075  0.47387100  0.56267600  1
  H  H2983  1  0.56752075  0.47387100  0.81267600  1
  H  H2984  1  0.56752075  0.72387100  0.06267600  1
  H  H2985  1  0.56752075  0.72387100  0.31267600  1
  H  H2986  1  0.56752075  0.72387100  0.56267600  1
  H  H2987  1  0.56752075  0.72387100  0.81267600  1
  H  H2988  1  0.56752075  0.97387100  0.06267600  1
  H  H2989  1  0.56752075  0.97387100  0.31267600  1
  H  H2990  1  0.56752075  0.97387100  0.56267600  1
  H  H2991  1  0.56752075  0.97387100  0.81267600  1
  H  H2992  1  0.81752075  0.22387100  0.06267600  1
  H  H2993  1  0.81752075  0.22387100  0.31267600  1
  H  H2994  1  0.81752075  0.22387100  0.56267600  1
  H  H2995  1  0.81752075  0.22387100  0.81267600  1
  H  H2996  1  0.81752075  0.47387100  0.06267600  1
  H  H2997  1  0.81752075  0.47387100  0.31267600  1
  H  H2998  1  0.81752075  0.47387100  0.56267600  1
  H  H2999  1  0.81752075  0.47387100  0.81267600  1
  H  H3000  1  0.81752075  0.72387100  0.06267600  1
  H  H3001  1  0.81752075  0.72387100  0.31267600  1
  H  H3002  1  0.81752075  0.72387100  0.56267600  1
  H  H3003  1  0.81752075  0.72387100  0.81267600  1
  H  H3004  1  0.81752075  0.97387100  0.06267600  1
  H  H3005  1  0.81752075  0.97387100  0.31267600  1
  H  H3006  1  0.81752075  0.97387100  0.56267600  1
  H  H3007  1  0.81752075  0.97387100  0.81267600  1
  H  H3008  1  0.18247925  0.02612900  0.18732400  1
  H  H3009  1  0.18247925  0.02612900  0.43732400  1
  H  H3010  1  0.18247925  0.02612900  0.68732400  1
  H  H3011  1  0.18247925  0.02612900  0.93732400  1
  H  H3012  1  0.18247925  0.27612900  0.18732400  1
  H  H3013  1  0.18247925  0.27612900  0.43732400  1
  H  H3014  1  0.18247925  0.27612900  0.68732400  1
  H  H3015  1  0.18247925  0.27612900  0.93732400  1
  H  H3016  1  0.18247925  0.52612900  0.18732400  1
  H  H3017  1  0.18247925  0.52612900  0.43732400  1
  H  H3018  1  0.18247925  0.52612900  0.68732400  1
  H  H3019  1  0.18247925  0.52612900  0.93732400  1
  H  H3020  1  0.18247925  0.77612900  0.18732400  1
  H  H3021  1  0.18247925  0.77612900  0.43732400  1
  H  H3022  1  0.18247925  0.77612900  0.68732400  1
  H  H3023  1  0.18247925  0.77612900  0.93732400  1
  H  H3024  1  0.43247925  0.02612900  0.18732400  1
  H  H3025  1  0.43247925  0.02612900  0.43732400  1
  H  H3026  1  0.43247925  0.02612900  0.68732400  1
  H  H3027  1  0.43247925  0.02612900  0.93732400  1
  H  H3028  1  0.43247925  0.27612900  0.18732400  1
  H  H3029  1  0.43247925  0.27612900  0.43732400  1
  H  H3030  1  0.43247925  0.27612900  0.68732400  1
  H  H3031  1  0.43247925  0.27612900  0.93732400  1
  H  H3032  1  0.43247925  0.52612900  0.18732400  1
  H  H3033  1  0.43247925  0.52612900  0.43732400  1
  H  H3034  1  0.43247925  0.52612900  0.68732400  1
  H  H3035  1  0.43247925  0.52612900  0.93732400  1
  H  H3036  1  0.43247925  0.77612900  0.18732400  1
  H  H3037  1  0.43247925  0.77612900  0.43732400  1
  H  H3038  1  0.43247925  0.77612900  0.68732400  1
  H  H3039  1  0.43247925  0.77612900  0.93732400  1
  H  H3040  1  0.68247925  0.02612900  0.18732400  1
  H  H3041  1  0.68247925  0.02612900  0.43732400  1
  H  H3042  1  0.68247925  0.02612900  0.68732400  1
  H  H3043  1  0.68247925  0.02612900  0.93732400  1
  H  H3044  1  0.68247925  0.27612900  0.18732400  1
  H  H3045  1  0.68247925  0.27612900  0.43732400  1
  H  H3046  1  0.68247925  0.27612900  0.68732400  1
  H  H3047  1  0.68247925  0.27612900  0.93732400  1
  H  H3048  1  0.68247925  0.52612900  0.18732400  1
  H  H3049  1  0.68247925  0.52612900  0.43732400  1
  H  H3050  1  0.68247925  0.52612900  0.68732400  1
  H  H3051  1  0.68247925  0.52612900  0.93732400  1
  H  H3052  1  0.68247925  0.77612900  0.18732400  1
  H  H3053  1  0.68247925  0.77612900  0.43732400  1
  H  H3054  1  0.68247925  0.77612900  0.68732400  1
  H  H3055  1  0.68247925  0.77612900  0.93732400  1
  H  H3056  1  0.93247925  0.02612900  0.18732400  1
  H  H3057  1  0.93247925  0.02612900  0.43732400  1
  H  H3058  1  0.93247925  0.02612900  0.68732400  1
  H  H3059  1  0.93247925  0.02612900  0.93732400  1
  H  H3060  1  0.93247925  0.27612900  0.18732400  1
  H  H3061  1  0.93247925  0.27612900  0.43732400  1
  H  H3062  1  0.93247925  0.27612900  0.68732400  1
  H  H3063  1  0.93247925  0.27612900  0.93732400  1
  H  H3064  1  0.93247925  0.52612900  0.18732400  1
  H  H3065  1  0.93247925  0.52612900  0.43732400  1
  H  H3066  1  0.93247925  0.52612900  0.68732400  1
  H  H3067  1  0.93247925  0.52612900  0.93732400  1
  H  H3068  1  0.93247925  0.77612900  0.18732400  1
  H  H3069  1  0.93247925  0.77612900  0.43732400  1
  H  H3070  1  0.93247925  0.77612900  0.68732400  1
  H  H3071  1  0.93247925  0.77612900  0.93732400  1
  H  H3072  1  0.01183325  0.11377400  0.10720825  1
  H  H3073  1  0.01183325  0.11377400  0.35720825  1
  H  H3074  1  0.01183325  0.11377400  0.60720825  1
  H  H3075  1  0.01183325  0.11377400  0.85720825  1
  H  H3076  1  0.01183325  0.36377400  0.10720825  1
  H  H3077  1  0.01183325  0.36377400  0.35720825  1
  H  H3078  1  0.01183325  0.36377400  0.60720825  1
  H  H3079  1  0.01183325  0.36377400  0.85720825  1
  H  H3080  1  0.01183325  0.61377400  0.10720825  1
  H  H3081  1  0.01183325  0.61377400  0.35720825  1
  H  H3082  1  0.01183325  0.61377400  0.60720825  1
  H  H3083  1  0.01183325  0.61377400  0.85720825  1
  H  H3084  1  0.01183325  0.86377400  0.10720825  1
  H  H3085  1  0.01183325  0.86377400  0.35720825  1
  H  H3086  1  0.01183325  0.86377400  0.60720825  1
  H  H3087  1  0.01183325  0.86377400  0.85720825  1
  H  H3088  1  0.26183325  0.11377400  0.10720825  1
  H  H3089  1  0.26183325  0.11377400  0.35720825  1
  H  H3090  1  0.26183325  0.11377400  0.60720825  1
  H  H3091  1  0.26183325  0.11377400  0.85720825  1
  H  H3092  1  0.26183325  0.36377400  0.10720825  1
  H  H3093  1  0.26183325  0.36377400  0.35720825  1
  H  H3094  1  0.26183325  0.36377400  0.60720825  1
  H  H3095  1  0.26183325  0.36377400  0.85720825  1
  H  H3096  1  0.26183325  0.61377400  0.10720825  1
  H  H3097  1  0.26183325  0.61377400  0.35720825  1
  H  H3098  1  0.26183325  0.61377400  0.60720825  1
  H  H3099  1  0.26183325  0.61377400  0.85720825  1
  H  H3100  1  0.26183325  0.86377400  0.10720825  1
  H  H3101  1  0.26183325  0.86377400  0.35720825  1
  H  H3102  1  0.26183325  0.86377400  0.60720825  1
  H  H3103  1  0.26183325  0.86377400  0.85720825  1
  H  H3104  1  0.51183325  0.11377400  0.10720825  1
  H  H3105  1  0.51183325  0.11377400  0.35720825  1
  H  H3106  1  0.51183325  0.11377400  0.60720825  1
  H  H3107  1  0.51183325  0.11377400  0.85720825  1
  H  H3108  1  0.51183325  0.36377400  0.10720825  1
  H  H3109  1  0.51183325  0.36377400  0.35720825  1
  H  H3110  1  0.51183325  0.36377400  0.60720825  1
  H  H3111  1  0.51183325  0.36377400  0.85720825  1
  H  H3112  1  0.51183325  0.61377400  0.10720825  1
  H  H3113  1  0.51183325  0.61377400  0.35720825  1
  H  H3114  1  0.51183325  0.61377400  0.60720825  1
  H  H3115  1  0.51183325  0.61377400  0.85720825  1
  H  H3116  1  0.51183325  0.86377400  0.10720825  1
  H  H3117  1  0.51183325  0.86377400  0.35720825  1
  H  H3118  1  0.51183325  0.86377400  0.60720825  1
  H  H3119  1  0.51183325  0.86377400  0.85720825  1
  H  H3120  1  0.76183325  0.11377400  0.10720825  1
  H  H3121  1  0.76183325  0.11377400  0.35720825  1
  H  H3122  1  0.76183325  0.11377400  0.60720825  1
  H  H3123  1  0.76183325  0.11377400  0.85720825  1
  H  H3124  1  0.76183325  0.36377400  0.10720825  1
  H  H3125  1  0.76183325  0.36377400  0.35720825  1
  H  H3126  1  0.76183325  0.36377400  0.60720825  1
  H  H3127  1  0.76183325  0.36377400  0.85720825  1
  H  H3128  1  0.76183325  0.61377400  0.10720825  1
  H  H3129  1  0.76183325  0.61377400  0.35720825  1
  H  H3130  1  0.76183325  0.61377400  0.60720825  1
  H  H3131  1  0.76183325  0.61377400  0.85720825  1
  H  H3132  1  0.76183325  0.86377400  0.10720825  1
  H  H3133  1  0.76183325  0.86377400  0.35720825  1
  H  H3134  1  0.76183325  0.86377400  0.60720825  1
  H  H3135  1  0.76183325  0.86377400  0.85720825  1
  H  H3136  1  0.23816675  0.13622600  0.14279175  1
  H  H3137  1  0.23816675  0.13622600  0.39279175  1
  H  H3138  1  0.23816675  0.13622600  0.64279175  1
  H  H3139  1  0.23816675  0.13622600  0.89279175  1
  H  H3140  1  0.23816675  0.38622600  0.14279175  1
  H  H3141  1  0.23816675  0.38622600  0.39279175  1
  H  H3142  1  0.23816675  0.38622600  0.64279175  1
  H  H3143  1  0.23816675  0.38622600  0.89279175  1
  H  H3144  1  0.23816675  0.63622600  0.14279175  1
  H  H3145  1  0.23816675  0.63622600  0.39279175  1
  H  H3146  1  0.23816675  0.63622600  0.64279175  1
  H  H3147  1  0.23816675  0.63622600  0.89279175  1
  H  H3148  1  0.23816675  0.88622600  0.14279175  1
  H  H3149  1  0.23816675  0.88622600  0.39279175  1
  H  H3150  1  0.23816675  0.88622600  0.64279175  1
  H  H3151  1  0.23816675  0.88622600  0.89279175  1
  H  H3152  1  0.48816675  0.13622600  0.14279175  1
  H  H3153  1  0.48816675  0.13622600  0.39279175  1
  H  H3154  1  0.48816675  0.13622600  0.64279175  1
  H  H3155  1  0.48816675  0.13622600  0.89279175  1
  H  H3156  1  0.48816675  0.38622600  0.14279175  1
  H  H3157  1  0.48816675  0.38622600  0.39279175  1
  H  H3158  1  0.48816675  0.38622600  0.64279175  1
  H  H3159  1  0.48816675  0.38622600  0.89279175  1
  H  H3160  1  0.48816675  0.63622600  0.14279175  1
  H  H3161  1  0.48816675  0.63622600  0.39279175  1
  H  H3162  1  0.48816675  0.63622600  0.64279175  1
  H  H3163  1  0.48816675  0.63622600  0.89279175  1
  H  H3164  1  0.48816675  0.88622600  0.14279175  1
  H  H3165  1  0.48816675  0.88622600  0.39279175  1
  H  H3166  1  0.48816675  0.88622600  0.64279175  1
  H  H3167  1  0.48816675  0.88622600  0.89279175  1
  H  H3168  1  0.73816675  0.13622600  0.14279175  1
  H  H3169  1  0.73816675  0.13622600  0.39279175  1
  H  H3170  1  0.73816675  0.13622600  0.64279175  1
  H  H3171  1  0.73816675  0.13622600  0.89279175  1
  H  H3172  1  0.73816675  0.38622600  0.14279175  1
  H  H3173  1  0.73816675  0.38622600  0.39279175  1
  H  H3174  1  0.73816675  0.38622600  0.64279175  1
  H  H3175  1  0.73816675  0.38622600  0.89279175  1
  H  H3176  1  0.73816675  0.63622600  0.14279175  1
  H  H3177  1  0.73816675  0.63622600  0.39279175  1
  H  H3178  1  0.73816675  0.63622600  0.64279175  1
  H  H3179  1  0.73816675  0.63622600  0.89279175  1
  H  H3180  1  0.73816675  0.88622600  0.14279175  1
  H  H3181  1  0.73816675  0.88622600  0.39279175  1
  H  H3182  1  0.73816675  0.88622600  0.64279175  1
  H  H3183  1  0.73816675  0.88622600  0.89279175  1
  H  H3184  1  0.98816675  0.13622600  0.14279175  1
  H  H3185  1  0.98816675  0.13622600  0.39279175  1
  H  H3186  1  0.98816675  0.13622600  0.64279175  1
  H  H3187  1  0.98816675  0.13622600  0.89279175  1
  H  H3188  1  0.98816675  0.38622600  0.14279175  1
  H  H3189  1  0.98816675  0.38622600  0.39279175  1
  H  H3190  1  0.98816675  0.38622600  0.64279175  1
  H  H3191  1  0.98816675  0.38622600  0.89279175  1
  H  H3192  1  0.98816675  0.63622600  0.14279175  1
  H  H3193  1  0.98816675  0.63622600  0.39279175  1
  H  H3194  1  0.98816675  0.63622600  0.64279175  1
  H  H3195  1  0.98816675  0.63622600  0.89279175  1
  H  H3196  1  0.98816675  0.88622600  0.14279175  1
  H  H3197  1  0.98816675  0.88622600  0.39279175  1
  H  H3198  1  0.98816675  0.88622600  0.64279175  1
  H  H3199  1  0.98816675  0.88622600  0.89279175  1
  H  H3200  1  0.21791375  0.10631900  0.09409750  1
  H  H3201  1  0.21791375  0.10631900  0.34409750  1
  H  H3202  1  0.21791375  0.10631900  0.59409750  1
  H  H3203  1  0.21791375  0.10631900  0.84409750  1
  H  H3204  1  0.21791375  0.35631900  0.09409750  1
  H  H3205  1  0.21791375  0.35631900  0.34409750  1
  H  H3206  1  0.21791375  0.35631900  0.59409750  1
  H  H3207  1  0.21791375  0.35631900  0.84409750  1
  H  H3208  1  0.21791375  0.60631900  0.09409750  1
  H  H3209  1  0.21791375  0.60631900  0.34409750  1
  H  H3210  1  0.21791375  0.60631900  0.59409750  1
  H  H3211  1  0.21791375  0.60631900  0.84409750  1
  H  H3212  1  0.21791375  0.85631900  0.09409750  1
  H  H3213  1  0.21791375  0.85631900  0.34409750  1
  H  H3214  1  0.21791375  0.85631900  0.59409750  1
  H  H3215  1  0.21791375  0.85631900  0.84409750  1
  H  H3216  1  0.46791375  0.10631900  0.09409750  1
  H  H3217  1  0.46791375  0.10631900  0.34409750  1
  H  H3218  1  0.46791375  0.10631900  0.59409750  1
  H  H3219  1  0.46791375  0.10631900  0.84409750  1
  H  H3220  1  0.46791375  0.35631900  0.09409750  1
  H  H3221  1  0.46791375  0.35631900  0.34409750  1
  H  H3222  1  0.46791375  0.35631900  0.59409750  1
  H  H3223  1  0.46791375  0.35631900  0.84409750  1
  H  H3224  1  0.46791375  0.60631900  0.09409750  1
  H  H3225  1  0.46791375  0.60631900  0.34409750  1
  H  H3226  1  0.46791375  0.60631900  0.59409750  1
  H  H3227  1  0.46791375  0.60631900  0.84409750  1
  H  H3228  1  0.46791375  0.85631900  0.09409750  1
  H  H3229  1  0.46791375  0.85631900  0.34409750  1
  H  H3230  1  0.46791375  0.85631900  0.59409750  1
  H  H3231  1  0.46791375  0.85631900  0.84409750  1
  H  H3232  1  0.71791375  0.10631900  0.09409750  1
  H  H3233  1  0.71791375  0.10631900  0.34409750  1
  H  H3234  1  0.71791375  0.10631900  0.59409750  1
  H  H3235  1  0.71791375  0.10631900  0.84409750  1
  H  H3236  1  0.71791375  0.35631900  0.09409750  1
  H  H3237  1  0.71791375  0.35631900  0.34409750  1
  H  H3238  1  0.71791375  0.35631900  0.59409750  1
  H  H3239  1  0.71791375  0.35631900  0.84409750  1
  H  H3240  1  0.71791375  0.60631900  0.09409750  1
  H  H3241  1  0.71791375  0.60631900  0.34409750  1
  H  H3242  1  0.71791375  0.60631900  0.59409750  1
  H  H3243  1  0.71791375  0.60631900  0.84409750  1
  H  H3244  1  0.71791375  0.85631900  0.09409750  1
  H  H3245  1  0.71791375  0.85631900  0.34409750  1
  H  H3246  1  0.71791375  0.85631900  0.59409750  1
  H  H3247  1  0.71791375  0.85631900  0.84409750  1
  H  H3248  1  0.96791375  0.10631900  0.09409750  1
  H  H3249  1  0.96791375  0.10631900  0.34409750  1
  H  H3250  1  0.96791375  0.10631900  0.59409750  1
  H  H3251  1  0.96791375  0.10631900  0.84409750  1
  H  H3252  1  0.96791375  0.35631900  0.09409750  1
  H  H3253  1  0.96791375  0.35631900  0.34409750  1
  H  H3254  1  0.96791375  0.35631900  0.59409750  1
  H  H3255  1  0.96791375  0.35631900  0.84409750  1
  H  H3256  1  0.96791375  0.60631900  0.09409750  1
  H  H3257  1  0.96791375  0.60631900  0.34409750  1
  H  H3258  1  0.96791375  0.60631900  0.59409750  1
  H  H3259  1  0.96791375  0.60631900  0.84409750  1
  H  H3260  1  0.96791375  0.85631900  0.09409750  1
  H  H3261  1  0.96791375  0.85631900  0.34409750  1
  H  H3262  1  0.96791375  0.85631900  0.59409750  1
  H  H3263  1  0.96791375  0.85631900  0.84409750  1
  H  H3264  1  0.03208625  0.14368100  0.15590250  1
  H  H3265  1  0.03208625  0.14368100  0.40590250  1
  H  H3266  1  0.03208625  0.14368100  0.65590250  1
  H  H3267  1  0.03208625  0.14368100  0.90590250  1
  H  H3268  1  0.03208625  0.39368100  0.15590250  1
  H  H3269  1  0.03208625  0.39368100  0.40590250  1
  H  H3270  1  0.03208625  0.39368100  0.65590250  1
  H  H3271  1  0.03208625  0.39368100  0.90590250  1
  H  H3272  1  0.03208625  0.64368100  0.15590250  1
  H  H3273  1  0.03208625  0.64368100  0.40590250  1
  H  H3274  1  0.03208625  0.64368100  0.65590250  1
  H  H3275  1  0.03208625  0.64368100  0.90590250  1
  H  H3276  1  0.03208625  0.89368100  0.15590250  1
  H  H3277  1  0.03208625  0.89368100  0.40590250  1
  H  H3278  1  0.03208625  0.89368100  0.65590250  1
  H  H3279  1  0.03208625  0.89368100  0.90590250  1
  H  H3280  1  0.28208625  0.14368100  0.15590250  1
  H  H3281  1  0.28208625  0.14368100  0.40590250  1
  H  H3282  1  0.28208625  0.14368100  0.65590250  1
  H  H3283  1  0.28208625  0.14368100  0.90590250  1
  H  H3284  1  0.28208625  0.39368100  0.15590250  1
  H  H3285  1  0.28208625  0.39368100  0.40590250  1
  H  H3286  1  0.28208625  0.39368100  0.65590250  1
  H  H3287  1  0.28208625  0.39368100  0.90590250  1
  H  H3288  1  0.28208625  0.64368100  0.15590250  1
  H  H3289  1  0.28208625  0.64368100  0.40590250  1
  H  H3290  1  0.28208625  0.64368100  0.65590250  1
  H  H3291  1  0.28208625  0.64368100  0.90590250  1
  H  H3292  1  0.28208625  0.89368100  0.15590250  1
  H  H3293  1  0.28208625  0.89368100  0.40590250  1
  H  H3294  1  0.28208625  0.89368100  0.65590250  1
  H  H3295  1  0.28208625  0.89368100  0.90590250  1
  H  H3296  1  0.53208625  0.14368100  0.15590250  1
  H  H3297  1  0.53208625  0.14368100  0.40590250  1
  H  H3298  1  0.53208625  0.14368100  0.65590250  1
  H  H3299  1  0.53208625  0.14368100  0.90590250  1
  H  H3300  1  0.53208625  0.39368100  0.15590250  1
  H  H3301  1  0.53208625  0.39368100  0.40590250  1
  H  H3302  1  0.53208625  0.39368100  0.65590250  1
  H  H3303  1  0.53208625  0.39368100  0.90590250  1
  H  H3304  1  0.53208625  0.64368100  0.15590250  1
  H  H3305  1  0.53208625  0.64368100  0.40590250  1
  H  H3306  1  0.53208625  0.64368100  0.65590250  1
  H  H3307  1  0.53208625  0.64368100  0.90590250  1
  H  H3308  1  0.53208625  0.89368100  0.15590250  1
  H  H3309  1  0.53208625  0.89368100  0.40590250  1
  H  H3310  1  0.53208625  0.89368100  0.65590250  1
  H  H3311  1  0.53208625  0.89368100  0.90590250  1
  H  H3312  1  0.78208625  0.14368100  0.15590250  1
  H  H3313  1  0.78208625  0.14368100  0.40590250  1
  H  H3314  1  0.78208625  0.14368100  0.65590250  1
  H  H3315  1  0.78208625  0.14368100  0.90590250  1
  H  H3316  1  0.78208625  0.39368100  0.15590250  1
  H  H3317  1  0.78208625  0.39368100  0.40590250  1
  H  H3318  1  0.78208625  0.39368100  0.65590250  1
  H  H3319  1  0.78208625  0.39368100  0.90590250  1
  H  H3320  1  0.78208625  0.64368100  0.15590250  1
  H  H3321  1  0.78208625  0.64368100  0.40590250  1
  H  H3322  1  0.78208625  0.64368100  0.65590250  1
  H  H3323  1  0.78208625  0.64368100  0.90590250  1
  H  H3324  1  0.78208625  0.89368100  0.15590250  1
  H  H3325  1  0.78208625  0.89368100  0.40590250  1
  H  H3326  1  0.78208625  0.89368100  0.65590250  1
  H  H3327  1  0.78208625  0.89368100  0.90590250  1
  H  H3328  1  0.00239525  0.10415200  0.07741075  1
  H  H3329  1  0.00239525  0.10415200  0.32741075  1
  H  H3330  1  0.00239525  0.10415200  0.57741075  1
  H  H3331  1  0.00239525  0.10415200  0.82741075  1
  H  H3332  1  0.00239525  0.35415200  0.07741075  1
  H  H3333  1  0.00239525  0.35415200  0.32741075  1
  H  H3334  1  0.00239525  0.35415200  0.57741075  1
  H  H3335  1  0.00239525  0.35415200  0.82741075  1
  H  H3336  1  0.00239525  0.60415200  0.07741075  1
  H  H3337  1  0.00239525  0.60415200  0.32741075  1
  H  H3338  1  0.00239525  0.60415200  0.57741075  1
  H  H3339  1  0.00239525  0.60415200  0.82741075  1
  H  H3340  1  0.00239525  0.85415200  0.07741075  1
  H  H3341  1  0.00239525  0.85415200  0.32741075  1
  H  H3342  1  0.00239525  0.85415200  0.57741075  1
  H  H3343  1  0.00239525  0.85415200  0.82741075  1
  H  H3344  1  0.25239525  0.10415200  0.07741075  1
  H  H3345  1  0.25239525  0.10415200  0.32741075  1
  H  H3346  1  0.25239525  0.10415200  0.57741075  1
  H  H3347  1  0.25239525  0.10415200  0.82741075  1
  H  H3348  1  0.25239525  0.35415200  0.07741075  1
  H  H3349  1  0.25239525  0.35415200  0.32741075  1
  H  H3350  1  0.25239525  0.35415200  0.57741075  1
  H  H3351  1  0.25239525  0.35415200  0.82741075  1
  H  H3352  1  0.25239525  0.60415200  0.07741075  1
  H  H3353  1  0.25239525  0.60415200  0.32741075  1
  H  H3354  1  0.25239525  0.60415200  0.57741075  1
  H  H3355  1  0.25239525  0.60415200  0.82741075  1
  H  H3356  1  0.25239525  0.85415200  0.07741075  1
  H  H3357  1  0.25239525  0.85415200  0.32741075  1
  H  H3358  1  0.25239525  0.85415200  0.57741075  1
  H  H3359  1  0.25239525  0.85415200  0.82741075  1
  H  H3360  1  0.50239525  0.10415200  0.07741075  1
  H  H3361  1  0.50239525  0.10415200  0.32741075  1
  H  H3362  1  0.50239525  0.10415200  0.57741075  1
  H  H3363  1  0.50239525  0.10415200  0.82741075  1
  H  H3364  1  0.50239525  0.35415200  0.07741075  1
  H  H3365  1  0.50239525  0.35415200  0.32741075  1
  H  H3366  1  0.50239525  0.35415200  0.57741075  1
  H  H3367  1  0.50239525  0.35415200  0.82741075  1
  H  H3368  1  0.50239525  0.60415200  0.07741075  1
  H  H3369  1  0.50239525  0.60415200  0.32741075  1
  H  H3370  1  0.50239525  0.60415200  0.57741075  1
  H  H3371  1  0.50239525  0.60415200  0.82741075  1
  H  H3372  1  0.50239525  0.85415200  0.07741075  1
  H  H3373  1  0.50239525  0.85415200  0.32741075  1
  H  H3374  1  0.50239525  0.85415200  0.57741075  1
  H  H3375  1  0.50239525  0.85415200  0.82741075  1
  H  H3376  1  0.75239525  0.10415200  0.07741075  1
  H  H3377  1  0.75239525  0.10415200  0.32741075  1
  H  H3378  1  0.75239525  0.10415200  0.57741075  1
  H  H3379  1  0.75239525  0.10415200  0.82741075  1
  H  H3380  1  0.75239525  0.35415200  0.07741075  1
  H  H3381  1  0.75239525  0.35415200  0.32741075  1
  H  H3382  1  0.75239525  0.35415200  0.57741075  1
  H  H3383  1  0.75239525  0.35415200  0.82741075  1
  H  H3384  1  0.75239525  0.60415200  0.07741075  1
  H  H3385  1  0.75239525  0.60415200  0.32741075  1
  H  H3386  1  0.75239525  0.60415200  0.57741075  1
  H  H3387  1  0.75239525  0.60415200  0.82741075  1
  H  H3388  1  0.75239525  0.85415200  0.07741075  1
  H  H3389  1  0.75239525  0.85415200  0.32741075  1
  H  H3390  1  0.75239525  0.85415200  0.57741075  1
  H  H3391  1  0.75239525  0.85415200  0.82741075  1
  H  H3392  1  0.24760475  0.14584800  0.17258925  1
  H  H3393  1  0.24760475  0.14584800  0.42258925  1
  H  H3394  1  0.24760475  0.14584800  0.67258925  1
  H  H3395  1  0.24760475  0.14584800  0.92258925  1
  H  H3396  1  0.24760475  0.39584800  0.17258925  1
  H  H3397  1  0.24760475  0.39584800  0.42258925  1
  H  H3398  1  0.24760475  0.39584800  0.67258925  1
  H  H3399  1  0.24760475  0.39584800  0.92258925  1
  H  H3400  1  0.24760475  0.64584800  0.17258925  1
  H  H3401  1  0.24760475  0.64584800  0.42258925  1
  H  H3402  1  0.24760475  0.64584800  0.67258925  1
  H  H3403  1  0.24760475  0.64584800  0.92258925  1
  H  H3404  1  0.24760475  0.89584800  0.17258925  1
  H  H3405  1  0.24760475  0.89584800  0.42258925  1
  H  H3406  1  0.24760475  0.89584800  0.67258925  1
  H  H3407  1  0.24760475  0.89584800  0.92258925  1
  H  H3408  1  0.49760475  0.14584800  0.17258925  1
  H  H3409  1  0.49760475  0.14584800  0.42258925  1
  H  H3410  1  0.49760475  0.14584800  0.67258925  1
  H  H3411  1  0.49760475  0.14584800  0.92258925  1
  H  H3412  1  0.49760475  0.39584800  0.17258925  1
  H  H3413  1  0.49760475  0.39584800  0.42258925  1
  H  H3414  1  0.49760475  0.39584800  0.67258925  1
  H  H3415  1  0.49760475  0.39584800  0.92258925  1
  H  H3416  1  0.49760475  0.64584800  0.17258925  1
  H  H3417  1  0.49760475  0.64584800  0.42258925  1
  H  H3418  1  0.49760475  0.64584800  0.67258925  1
  H  H3419  1  0.49760475  0.64584800  0.92258925  1
  H  H3420  1  0.49760475  0.89584800  0.17258925  1
  H  H3421  1  0.49760475  0.89584800  0.42258925  1
  H  H3422  1  0.49760475  0.89584800  0.67258925  1
  H  H3423  1  0.49760475  0.89584800  0.92258925  1
  H  H3424  1  0.74760475  0.14584800  0.17258925  1
  H  H3425  1  0.74760475  0.14584800  0.42258925  1
  H  H3426  1  0.74760475  0.14584800  0.67258925  1
  H  H3427  1  0.74760475  0.14584800  0.92258925  1
  H  H3428  1  0.74760475  0.39584800  0.17258925  1
  H  H3429  1  0.74760475  0.39584800  0.42258925  1
  H  H3430  1  0.74760475  0.39584800  0.67258925  1
  H  H3431  1  0.74760475  0.39584800  0.92258925  1
  H  H3432  1  0.74760475  0.64584800  0.17258925  1
  H  H3433  1  0.74760475  0.64584800  0.42258925  1
  H  H3434  1  0.74760475  0.64584800  0.67258925  1
  H  H3435  1  0.74760475  0.64584800  0.92258925  1
  H  H3436  1  0.74760475  0.89584800  0.17258925  1
  H  H3437  1  0.74760475  0.89584800  0.42258925  1
  H  H3438  1  0.74760475  0.89584800  0.67258925  1
  H  H3439  1  0.74760475  0.89584800  0.92258925  1
  H  H3440  1  0.99760475  0.14584800  0.17258925  1
  H  H3441  1  0.99760475  0.14584800  0.42258925  1
  H  H3442  1  0.99760475  0.14584800  0.67258925  1
  H  H3443  1  0.99760475  0.14584800  0.92258925  1
  H  H3444  1  0.99760475  0.39584800  0.17258925  1
  H  H3445  1  0.99760475  0.39584800  0.42258925  1
  H  H3446  1  0.99760475  0.39584800  0.67258925  1
  H  H3447  1  0.99760475  0.39584800  0.92258925  1
  H  H3448  1  0.99760475  0.64584800  0.17258925  1
  H  H3449  1  0.99760475  0.64584800  0.42258925  1
  H  H3450  1  0.99760475  0.64584800  0.67258925  1
  H  H3451  1  0.99760475  0.64584800  0.92258925  1
  H  H3452  1  0.99760475  0.89584800  0.17258925  1
  H  H3453  1  0.99760475  0.89584800  0.42258925  1
  H  H3454  1  0.99760475  0.89584800  0.67258925  1
  H  H3455  1  0.99760475  0.89584800  0.92258925  1
  H  H3456  1  0.24265800  0.22646500  0.09064500  1
  H  H3457  1  0.24265800  0.22646500  0.34064500  1
  H  H3458  1  0.24265800  0.22646500  0.59064500  1
  H  H3459  1  0.24265800  0.22646500  0.84064500  1
  H  H3460  1  0.24265800  0.47646500  0.09064500  1
  H  H3461  1  0.24265800  0.47646500  0.34064500  1
  H  H3462  1  0.24265800  0.47646500  0.59064500  1
  H  H3463  1  0.24265800  0.47646500  0.84064500  1
  H  H3464  1  0.24265800  0.72646500  0.09064500  1
  H  H3465  1  0.24265800  0.72646500  0.34064500  1
  H  H3466  1  0.24265800  0.72646500  0.59064500  1
  H  H3467  1  0.24265800  0.72646500  0.84064500  1
  H  H3468  1  0.24265800  0.97646500  0.09064500  1
  H  H3469  1  0.24265800  0.97646500  0.34064500  1
  H  H3470  1  0.24265800  0.97646500  0.59064500  1
  H  H3471  1  0.24265800  0.97646500  0.84064500  1
  H  H3472  1  0.49265800  0.22646500  0.09064500  1
  H  H3473  1  0.49265800  0.22646500  0.34064500  1
  H  H3474  1  0.49265800  0.22646500  0.59064500  1
  H  H3475  1  0.49265800  0.22646500  0.84064500  1
  H  H3476  1  0.49265800  0.47646500  0.09064500  1
  H  H3477  1  0.49265800  0.47646500  0.34064500  1
  H  H3478  1  0.49265800  0.47646500  0.59064500  1
  H  H3479  1  0.49265800  0.47646500  0.84064500  1
  H  H3480  1  0.49265800  0.72646500  0.09064500  1
  H  H3481  1  0.49265800  0.72646500  0.34064500  1
  H  H3482  1  0.49265800  0.72646500  0.59064500  1
  H  H3483  1  0.49265800  0.72646500  0.84064500  1
  H  H3484  1  0.49265800  0.97646500  0.09064500  1
  H  H3485  1  0.49265800  0.97646500  0.34064500  1
  H  H3486  1  0.49265800  0.97646500  0.59064500  1
  H  H3487  1  0.49265800  0.97646500  0.84064500  1
  H  H3488  1  0.74265800  0.22646500  0.09064500  1
  H  H3489  1  0.74265800  0.22646500  0.34064500  1
  H  H3490  1  0.74265800  0.22646500  0.59064500  1
  H  H3491  1  0.74265800  0.22646500  0.84064500  1
  H  H3492  1  0.74265800  0.47646500  0.09064500  1
  H  H3493  1  0.74265800  0.47646500  0.34064500  1
  H  H3494  1  0.74265800  0.47646500  0.59064500  1
  H  H3495  1  0.74265800  0.47646500  0.84064500  1
  H  H3496  1  0.74265800  0.72646500  0.09064500  1
  H  H3497  1  0.74265800  0.72646500  0.34064500  1
  H  H3498  1  0.74265800  0.72646500  0.59064500  1
  H  H3499  1  0.74265800  0.72646500  0.84064500  1
  H  H3500  1  0.74265800  0.97646500  0.09064500  1
  H  H3501  1  0.74265800  0.97646500  0.34064500  1
  H  H3502  1  0.74265800  0.97646500  0.59064500  1
  H  H3503  1  0.74265800  0.97646500  0.84064500  1
  H  H3504  1  0.99265800  0.22646500  0.09064500  1
  H  H3505  1  0.99265800  0.22646500  0.34064500  1
  H  H3506  1  0.99265800  0.22646500  0.59064500  1
  H  H3507  1  0.99265800  0.22646500  0.84064500  1
  H  H3508  1  0.99265800  0.47646500  0.09064500  1
  H  H3509  1  0.99265800  0.47646500  0.34064500  1
  H  H3510  1  0.99265800  0.47646500  0.59064500  1
  H  H3511  1  0.99265800  0.47646500  0.84064500  1
  H  H3512  1  0.99265800  0.72646500  0.09064500  1
  H  H3513  1  0.99265800  0.72646500  0.34064500  1
  H  H3514  1  0.99265800  0.72646500  0.59064500  1
  H  H3515  1  0.99265800  0.72646500  0.84064500  1
  H  H3516  1  0.99265800  0.97646500  0.09064500  1
  H  H3517  1  0.99265800  0.97646500  0.34064500  1
  H  H3518  1  0.99265800  0.97646500  0.59064500  1
  H  H3519  1  0.99265800  0.97646500  0.84064500  1
  H  H3520  1  0.00734200  0.02353500  0.15935500  1
  H  H3521  1  0.00734200  0.02353500  0.40935500  1
  H  H3522  1  0.00734200  0.02353500  0.65935500  1
  H  H3523  1  0.00734200  0.02353500  0.90935500  1
  H  H3524  1  0.00734200  0.27353500  0.15935500  1
  H  H3525  1  0.00734200  0.27353500  0.40935500  1
  H  H3526  1  0.00734200  0.27353500  0.65935500  1
  H  H3527  1  0.00734200  0.27353500  0.90935500  1
  H  H3528  1  0.00734200  0.52353500  0.15935500  1
  H  H3529  1  0.00734200  0.52353500  0.40935500  1
  H  H3530  1  0.00734200  0.52353500  0.65935500  1
  H  H3531  1  0.00734200  0.52353500  0.90935500  1
  H  H3532  1  0.00734200  0.77353500  0.15935500  1
  H  H3533  1  0.00734200  0.77353500  0.40935500  1
  H  H3534  1  0.00734200  0.77353500  0.65935500  1
  H  H3535  1  0.00734200  0.77353500  0.90935500  1
  H  H3536  1  0.25734200  0.02353500  0.15935500  1
  H  H3537  1  0.25734200  0.02353500  0.40935500  1
  H  H3538  1  0.25734200  0.02353500  0.65935500  1
  H  H3539  1  0.25734200  0.02353500  0.90935500  1
  H  H3540  1  0.25734200  0.27353500  0.15935500  1
  H  H3541  1  0.25734200  0.27353500  0.40935500  1
  H  H3542  1  0.25734200  0.27353500  0.65935500  1
  H  H3543  1  0.25734200  0.27353500  0.90935500  1
  H  H3544  1  0.25734200  0.52353500  0.15935500  1
  H  H3545  1  0.25734200  0.52353500  0.40935500  1
  H  H3546  1  0.25734200  0.52353500  0.65935500  1
  H  H3547  1  0.25734200  0.52353500  0.90935500  1
  H  H3548  1  0.25734200  0.77353500  0.15935500  1
  H  H3549  1  0.25734200  0.77353500  0.40935500  1
  H  H3550  1  0.25734200  0.77353500  0.65935500  1
  H  H3551  1  0.25734200  0.77353500  0.90935500  1
  H  H3552  1  0.50734200  0.02353500  0.15935500  1
  H  H3553  1  0.50734200  0.02353500  0.40935500  1
  H  H3554  1  0.50734200  0.02353500  0.65935500  1
  H  H3555  1  0.50734200  0.02353500  0.90935500  1
  H  H3556  1  0.50734200  0.27353500  0.15935500  1
  H  H3557  1  0.50734200  0.27353500  0.40935500  1
  H  H3558  1  0.50734200  0.27353500  0.65935500  1
  H  H3559  1  0.50734200  0.27353500  0.90935500  1
  H  H3560  1  0.50734200  0.52353500  0.15935500  1
  H  H3561  1  0.50734200  0.52353500  0.40935500  1
  H  H3562  1  0.50734200  0.52353500  0.65935500  1
  H  H3563  1  0.50734200  0.52353500  0.90935500  1
  H  H3564  1  0.50734200  0.77353500  0.15935500  1
  H  H3565  1  0.50734200  0.77353500  0.40935500  1
  H  H3566  1  0.50734200  0.77353500  0.65935500  1
  H  H3567  1  0.50734200  0.77353500  0.90935500  1
  H  H3568  1  0.75734200  0.02353500  0.15935500  1
  H  H3569  1  0.75734200  0.02353500  0.40935500  1
  H  H3570  1  0.75734200  0.02353500  0.65935500  1
  H  H3571  1  0.75734200  0.02353500  0.90935500  1
  H  H3572  1  0.75734200  0.27353500  0.15935500  1
  H  H3573  1  0.75734200  0.27353500  0.40935500  1
  H  H3574  1  0.75734200  0.27353500  0.65935500  1
  H  H3575  1  0.75734200  0.27353500  0.90935500  1
  H  H3576  1  0.75734200  0.52353500  0.15935500  1
  H  H3577  1  0.75734200  0.52353500  0.40935500  1
  H  H3578  1  0.75734200  0.52353500  0.65935500  1
  H  H3579  1  0.75734200  0.52353500  0.90935500  1
  H  H3580  1  0.75734200  0.77353500  0.15935500  1
  H  H3581  1  0.75734200  0.77353500  0.40935500  1
  H  H3582  1  0.75734200  0.77353500  0.65935500  1
  H  H3583  1  0.75734200  0.77353500  0.90935500  1
  H  H3584  1  0.20513325  0.17953100  0.08475950  1
  H  H3585  1  0.20513325  0.17953100  0.33475950  1
  H  H3586  1  0.20513325  0.17953100  0.58475950  1
  H  H3587  1  0.20513325  0.17953100  0.83475950  1
  H  H3588  1  0.20513325  0.42953100  0.08475950  1
  H  H3589  1  0.20513325  0.42953100  0.33475950  1
  H  H3590  1  0.20513325  0.42953100  0.58475950  1
  H  H3591  1  0.20513325  0.42953100  0.83475950  1
  H  H3592  1  0.20513325  0.67953100  0.08475950  1
  H  H3593  1  0.20513325  0.67953100  0.33475950  1
  H  H3594  1  0.20513325  0.67953100  0.58475950  1
  H  H3595  1  0.20513325  0.67953100  0.83475950  1
  H  H3596  1  0.20513325  0.92953100  0.08475950  1
  H  H3597  1  0.20513325  0.92953100  0.33475950  1
  H  H3598  1  0.20513325  0.92953100  0.58475950  1
  H  H3599  1  0.20513325  0.92953100  0.83475950  1
  H  H3600  1  0.45513325  0.17953100  0.08475950  1
  H  H3601  1  0.45513325  0.17953100  0.33475950  1
  H  H3602  1  0.45513325  0.17953100  0.58475950  1
  H  H3603  1  0.45513325  0.17953100  0.83475950  1
  H  H3604  1  0.45513325  0.42953100  0.08475950  1
  H  H3605  1  0.45513325  0.42953100  0.33475950  1
  H  H3606  1  0.45513325  0.42953100  0.58475950  1
  H  H3607  1  0.45513325  0.42953100  0.83475950  1
  H  H3608  1  0.45513325  0.67953100  0.08475950  1
  H  H3609  1  0.45513325  0.67953100  0.33475950  1
  H  H3610  1  0.45513325  0.67953100  0.58475950  1
  H  H3611  1  0.45513325  0.67953100  0.83475950  1
  H  H3612  1  0.45513325  0.92953100  0.08475950  1
  H  H3613  1  0.45513325  0.92953100  0.33475950  1
  H  H3614  1  0.45513325  0.92953100  0.58475950  1
  H  H3615  1  0.45513325  0.92953100  0.83475950  1
  H  H3616  1  0.70513325  0.17953100  0.08475950  1
  H  H3617  1  0.70513325  0.17953100  0.33475950  1
  H  H3618  1  0.70513325  0.17953100  0.58475950  1
  H  H3619  1  0.70513325  0.17953100  0.83475950  1
  H  H3620  1  0.70513325  0.42953100  0.08475950  1
  H  H3621  1  0.70513325  0.42953100  0.33475950  1
  H  H3622  1  0.70513325  0.42953100  0.58475950  1
  H  H3623  1  0.70513325  0.42953100  0.83475950  1
  H  H3624  1  0.70513325  0.67953100  0.08475950  1
  H  H3625  1  0.70513325  0.67953100  0.33475950  1
  H  H3626  1  0.70513325  0.67953100  0.58475950  1
  H  H3627  1  0.70513325  0.67953100  0.83475950  1
  H  H3628  1  0.70513325  0.92953100  0.08475950  1
  H  H3629  1  0.70513325  0.92953100  0.33475950  1
  H  H3630  1  0.70513325  0.92953100  0.58475950  1
  H  H3631  1  0.70513325  0.92953100  0.83475950  1
  H  H3632  1  0.95513325  0.17953100  0.08475950  1
  H  H3633  1  0.95513325  0.17953100  0.33475950  1
  H  H3634  1  0.95513325  0.17953100  0.58475950  1
  H  H3635  1  0.95513325  0.17953100  0.83475950  1
  H  H3636  1  0.95513325  0.42953100  0.08475950  1
  H  H3637  1  0.95513325  0.42953100  0.33475950  1
  H  H3638  1  0.95513325  0.42953100  0.58475950  1
  H  H3639  1  0.95513325  0.42953100  0.83475950  1
  H  H3640  1  0.95513325  0.67953100  0.08475950  1
  H  H3641  1  0.95513325  0.67953100  0.33475950  1
  H  H3642  1  0.95513325  0.67953100  0.58475950  1
  H  H3643  1  0.95513325  0.67953100  0.83475950  1
  H  H3644  1  0.95513325  0.92953100  0.08475950  1
  H  H3645  1  0.95513325  0.92953100  0.33475950  1
  H  H3646  1  0.95513325  0.92953100  0.58475950  1
  H  H3647  1  0.95513325  0.92953100  0.83475950  1
  H  H3648  1  0.04486675  0.07046900  0.16524050  1
  H  H3649  1  0.04486675  0.07046900  0.41524050  1
  H  H3650  1  0.04486675  0.07046900  0.66524050  1
  H  H3651  1  0.04486675  0.07046900  0.91524050  1
  H  H3652  1  0.04486675  0.32046900  0.16524050  1
  H  H3653  1  0.04486675  0.32046900  0.41524050  1
  H  H3654  1  0.04486675  0.32046900  0.66524050  1
  H  H3655  1  0.04486675  0.32046900  0.91524050  1
  H  H3656  1  0.04486675  0.57046900  0.16524050  1
  H  H3657  1  0.04486675  0.57046900  0.41524050  1
  H  H3658  1  0.04486675  0.57046900  0.66524050  1
  H  H3659  1  0.04486675  0.57046900  0.91524050  1
  H  H3660  1  0.04486675  0.82046900  0.16524050  1
  H  H3661  1  0.04486675  0.82046900  0.41524050  1
  H  H3662  1  0.04486675  0.82046900  0.66524050  1
  H  H3663  1  0.04486675  0.82046900  0.91524050  1
  H  H3664  1  0.29486675  0.07046900  0.16524050  1
  H  H3665  1  0.29486675  0.07046900  0.41524050  1
  H  H3666  1  0.29486675  0.07046900  0.66524050  1
  H  H3667  1  0.29486675  0.07046900  0.91524050  1
  H  H3668  1  0.29486675  0.32046900  0.16524050  1
  H  H3669  1  0.29486675  0.32046900  0.41524050  1
  H  H3670  1  0.29486675  0.32046900  0.66524050  1
  H  H3671  1  0.29486675  0.32046900  0.91524050  1
  H  H3672  1  0.29486675  0.57046900  0.16524050  1
  H  H3673  1  0.29486675  0.57046900  0.41524050  1
  H  H3674  1  0.29486675  0.57046900  0.66524050  1
  H  H3675  1  0.29486675  0.57046900  0.91524050  1
  H  H3676  1  0.29486675  0.82046900  0.16524050  1
  H  H3677  1  0.29486675  0.82046900  0.41524050  1
  H  H3678  1  0.29486675  0.82046900  0.66524050  1
  H  H3679  1  0.29486675  0.82046900  0.91524050  1
  H  H3680  1  0.54486675  0.07046900  0.16524050  1
  H  H3681  1  0.54486675  0.07046900  0.41524050  1
  H  H3682  1  0.54486675  0.07046900  0.66524050  1
  H  H3683  1  0.54486675  0.07046900  0.91524050  1
  H  H3684  1  0.54486675  0.32046900  0.16524050  1
  H  H3685  1  0.54486675  0.32046900  0.41524050  1
  H  H3686  1  0.54486675  0.32046900  0.66524050  1
  H  H3687  1  0.54486675  0.32046900  0.91524050  1
  H  H3688  1  0.54486675  0.57046900  0.16524050  1
  H  H3689  1  0.54486675  0.57046900  0.41524050  1
  H  H3690  1  0.54486675  0.57046900  0.66524050  1
  H  H3691  1  0.54486675  0.57046900  0.91524050  1
  H  H3692  1  0.54486675  0.82046900  0.16524050  1
  H  H3693  1  0.54486675  0.82046900  0.41524050  1
  H  H3694  1  0.54486675  0.82046900  0.66524050  1
  H  H3695  1  0.54486675  0.82046900  0.91524050  1
  H  H3696  1  0.79486675  0.07046900  0.16524050  1
  H  H3697  1  0.79486675  0.07046900  0.41524050  1
  H  H3698  1  0.79486675  0.07046900  0.66524050  1
  H  H3699  1  0.79486675  0.07046900  0.91524050  1
  H  H3700  1  0.79486675  0.32046900  0.16524050  1
  H  H3701  1  0.79486675  0.32046900  0.41524050  1
  H  H3702  1  0.79486675  0.32046900  0.66524050  1
  H  H3703  1  0.79486675  0.32046900  0.91524050  1
  H  H3704  1  0.79486675  0.57046900  0.16524050  1
  H  H3705  1  0.79486675  0.57046900  0.41524050  1
  H  H3706  1  0.79486675  0.57046900  0.66524050  1
  H  H3707  1  0.79486675  0.57046900  0.91524050  1
  H  H3708  1  0.79486675  0.82046900  0.16524050  1
  H  H3709  1  0.79486675  0.82046900  0.41524050  1
  H  H3710  1  0.79486675  0.82046900  0.66524050  1
  H  H3711  1  0.79486675  0.82046900  0.91524050  1
  H  H3712  1  0.22447700  0.20243025  0.11340175  1
  H  H3713  1  0.22447700  0.20243025  0.36340175  1
  H  H3714  1  0.22447700  0.20243025  0.61340175  1
  H  H3715  1  0.22447700  0.20243025  0.86340175  1
  H  H3716  1  0.22447700  0.45243025  0.11340175  1
  H  H3717  1  0.22447700  0.45243025  0.36340175  1
  H  H3718  1  0.22447700  0.45243025  0.61340175  1
  H  H3719  1  0.22447700  0.45243025  0.86340175  1
  H  H3720  1  0.22447700  0.70243025  0.11340175  1
  H  H3721  1  0.22447700  0.70243025  0.36340175  1
  H  H3722  1  0.22447700  0.70243025  0.61340175  1
  H  H3723  1  0.22447700  0.70243025  0.86340175  1
  H  H3724  1  0.22447700  0.95243025  0.11340175  1
  H  H3725  1  0.22447700  0.95243025  0.36340175  1
  H  H3726  1  0.22447700  0.95243025  0.61340175  1
  H  H3727  1  0.22447700  0.95243025  0.86340175  1
  H  H3728  1  0.47447700  0.20243025  0.11340175  1
  H  H3729  1  0.47447700  0.20243025  0.36340175  1
  H  H3730  1  0.47447700  0.20243025  0.61340175  1
  H  H3731  1  0.47447700  0.20243025  0.86340175  1
  H  H3732  1  0.47447700  0.45243025  0.11340175  1
  H  H3733  1  0.47447700  0.45243025  0.36340175  1
  H  H3734  1  0.47447700  0.45243025  0.61340175  1
  H  H3735  1  0.47447700  0.45243025  0.86340175  1
  H  H3736  1  0.47447700  0.70243025  0.11340175  1
  H  H3737  1  0.47447700  0.70243025  0.36340175  1
  H  H3738  1  0.47447700  0.70243025  0.61340175  1
  H  H3739  1  0.47447700  0.70243025  0.86340175  1
  H  H3740  1  0.47447700  0.95243025  0.11340175  1
  H  H3741  1  0.47447700  0.95243025  0.36340175  1
  H  H3742  1  0.47447700  0.95243025  0.61340175  1
  H  H3743  1  0.47447700  0.95243025  0.86340175  1
  H  H3744  1  0.72447700  0.20243025  0.11340175  1
  H  H3745  1  0.72447700  0.20243025  0.36340175  1
  H  H3746  1  0.72447700  0.20243025  0.61340175  1
  H  H3747  1  0.72447700  0.20243025  0.86340175  1
  H  H3748  1  0.72447700  0.45243025  0.11340175  1
  H  H3749  1  0.72447700  0.45243025  0.36340175  1
  H  H3750  1  0.72447700  0.45243025  0.61340175  1
  H  H3751  1  0.72447700  0.45243025  0.86340175  1
  H  H3752  1  0.72447700  0.70243025  0.11340175  1
  H  H3753  1  0.72447700  0.70243025  0.36340175  1
  H  H3754  1  0.72447700  0.70243025  0.61340175  1
  H  H3755  1  0.72447700  0.70243025  0.86340175  1
  H  H3756  1  0.72447700  0.95243025  0.11340175  1
  H  H3757  1  0.72447700  0.95243025  0.36340175  1
  H  H3758  1  0.72447700  0.95243025  0.61340175  1
  H  H3759  1  0.72447700  0.95243025  0.86340175  1
  H  H3760  1  0.97447700  0.20243025  0.11340175  1
  H  H3761  1  0.97447700  0.20243025  0.36340175  1
  H  H3762  1  0.97447700  0.20243025  0.61340175  1
  H  H3763  1  0.97447700  0.20243025  0.86340175  1
  H  H3764  1  0.97447700  0.45243025  0.11340175  1
  H  H3765  1  0.97447700  0.45243025  0.36340175  1
  H  H3766  1  0.97447700  0.45243025  0.61340175  1
  H  H3767  1  0.97447700  0.45243025  0.86340175  1
  H  H3768  1  0.97447700  0.70243025  0.11340175  1
  H  H3769  1  0.97447700  0.70243025  0.36340175  1
  H  H3770  1  0.97447700  0.70243025  0.61340175  1
  H  H3771  1  0.97447700  0.70243025  0.86340175  1
  H  H3772  1  0.97447700  0.95243025  0.11340175  1
  H  H3773  1  0.97447700  0.95243025  0.36340175  1
  H  H3774  1  0.97447700  0.95243025  0.61340175  1
  H  H3775  1  0.97447700  0.95243025  0.86340175  1
  H  H3776  1  0.02552300  0.04756975  0.13659825  1
  H  H3777  1  0.02552300  0.04756975  0.38659825  1
  H  H3778  1  0.02552300  0.04756975  0.63659825  1
  H  H3779  1  0.02552300  0.04756975  0.88659825  1
  H  H3780  1  0.02552300  0.29756975  0.13659825  1
  H  H3781  1  0.02552300  0.29756975  0.38659825  1
  H  H3782  1  0.02552300  0.29756975  0.63659825  1
  H  H3783  1  0.02552300  0.29756975  0.88659825  1
  H  H3784  1  0.02552300  0.54756975  0.13659825  1
  H  H3785  1  0.02552300  0.54756975  0.38659825  1
  H  H3786  1  0.02552300  0.54756975  0.63659825  1
  H  H3787  1  0.02552300  0.54756975  0.88659825  1
  H  H3788  1  0.02552300  0.79756975  0.13659825  1
  H  H3789  1  0.02552300  0.79756975  0.38659825  1
  H  H3790  1  0.02552300  0.79756975  0.63659825  1
  H  H3791  1  0.02552300  0.79756975  0.88659825  1
  H  H3792  1  0.27552300  0.04756975  0.13659825  1
  H  H3793  1  0.27552300  0.04756975  0.38659825  1
  H  H3794  1  0.27552300  0.04756975  0.63659825  1
  H  H3795  1  0.27552300  0.04756975  0.88659825  1
  H  H3796  1  0.27552300  0.29756975  0.13659825  1
  H  H3797  1  0.27552300  0.29756975  0.38659825  1
  H  H3798  1  0.27552300  0.29756975  0.63659825  1
  H  H3799  1  0.27552300  0.29756975  0.88659825  1
  H  H3800  1  0.27552300  0.54756975  0.13659825  1
  H  H3801  1  0.27552300  0.54756975  0.38659825  1
  H  H3802  1  0.27552300  0.54756975  0.63659825  1
  H  H3803  1  0.27552300  0.54756975  0.88659825  1
  H  H3804  1  0.27552300  0.79756975  0.13659825  1
  H  H3805  1  0.27552300  0.79756975  0.38659825  1
  H  H3806  1  0.27552300  0.79756975  0.63659825  1
  H  H3807  1  0.27552300  0.79756975  0.88659825  1
  H  H3808  1  0.52552300  0.04756975  0.13659825  1
  H  H3809  1  0.52552300  0.04756975  0.38659825  1
  H  H3810  1  0.52552300  0.04756975  0.63659825  1
  H  H3811  1  0.52552300  0.04756975  0.88659825  1
  H  H3812  1  0.52552300  0.29756975  0.13659825  1
  H  H3813  1  0.52552300  0.29756975  0.38659825  1
  H  H3814  1  0.52552300  0.29756975  0.63659825  1
  H  H3815  1  0.52552300  0.29756975  0.88659825  1
  H  H3816  1  0.52552300  0.54756975  0.13659825  1
  H  H3817  1  0.52552300  0.54756975  0.38659825  1
  H  H3818  1  0.52552300  0.54756975  0.63659825  1
  H  H3819  1  0.52552300  0.54756975  0.88659825  1
  H  H3820  1  0.52552300  0.79756975  0.13659825  1
  H  H3821  1  0.52552300  0.79756975  0.38659825  1
  H  H3822  1  0.52552300  0.79756975  0.63659825  1
  H  H3823  1  0.52552300  0.79756975  0.88659825  1
  H  H3824  1  0.77552300  0.04756975  0.13659825  1
  H  H3825  1  0.77552300  0.04756975  0.38659825  1
  H  H3826  1  0.77552300  0.04756975  0.63659825  1
  H  H3827  1  0.77552300  0.04756975  0.88659825  1
  H  H3828  1  0.77552300  0.29756975  0.13659825  1
  H  H3829  1  0.77552300  0.29756975  0.38659825  1
  H  H3830  1  0.77552300  0.29756975  0.63659825  1
  H  H3831  1  0.77552300  0.29756975  0.88659825  1
  H  H3832  1  0.77552300  0.54756975  0.13659825  1
  H  H3833  1  0.77552300  0.54756975  0.38659825  1
  H  H3834  1  0.77552300  0.54756975  0.63659825  1
  H  H3835  1  0.77552300  0.54756975  0.88659825  1
  H  H3836  1  0.77552300  0.79756975  0.13659825  1
  H  H3837  1  0.77552300  0.79756975  0.38659825  1
  H  H3838  1  0.77552300  0.79756975  0.63659825  1
  H  H3839  1  0.77552300  0.79756975  0.88659825  1
  H  H3840  1  0.07965325  0.19635600  0.12976325  1
  H  H3841  1  0.07965325  0.19635600  0.37976325  1
  H  H3842  1  0.07965325  0.19635600  0.62976325  1
  H  H3843  1  0.07965325  0.19635600  0.87976325  1
  H  H3844  1  0.07965325  0.44635600  0.12976325  1
  H  H3845  1  0.07965325  0.44635600  0.37976325  1
  H  H3846  1  0.07965325  0.44635600  0.62976325  1
  H  H3847  1  0.07965325  0.44635600  0.87976325  1
  H  H3848  1  0.07965325  0.69635600  0.12976325  1
  H  H3849  1  0.07965325  0.69635600  0.37976325  1
  H  H3850  1  0.07965325  0.69635600  0.62976325  1
  H  H3851  1  0.07965325  0.69635600  0.87976325  1
  H  H3852  1  0.07965325  0.94635600  0.12976325  1
  H  H3853  1  0.07965325  0.94635600  0.37976325  1
  H  H3854  1  0.07965325  0.94635600  0.62976325  1
  H  H3855  1  0.07965325  0.94635600  0.87976325  1
  H  H3856  1  0.32965325  0.19635600  0.12976325  1
  H  H3857  1  0.32965325  0.19635600  0.37976325  1
  H  H3858  1  0.32965325  0.19635600  0.62976325  1
  H  H3859  1  0.32965325  0.19635600  0.87976325  1
  H  H3860  1  0.32965325  0.44635600  0.12976325  1
  H  H3861  1  0.32965325  0.44635600  0.37976325  1
  H  H3862  1  0.32965325  0.44635600  0.62976325  1
  H  H3863  1  0.32965325  0.44635600  0.87976325  1
  H  H3864  1  0.32965325  0.69635600  0.12976325  1
  H  H3865  1  0.32965325  0.69635600  0.37976325  1
  H  H3866  1  0.32965325  0.69635600  0.62976325  1
  H  H3867  1  0.32965325  0.69635600  0.87976325  1
  H  H3868  1  0.32965325  0.94635600  0.12976325  1
  H  H3869  1  0.32965325  0.94635600  0.37976325  1
  H  H3870  1  0.32965325  0.94635600  0.62976325  1
  H  H3871  1  0.32965325  0.94635600  0.87976325  1
  H  H3872  1  0.57965325  0.19635600  0.12976325  1
  H  H3873  1  0.57965325  0.19635600  0.37976325  1
  H  H3874  1  0.57965325  0.19635600  0.62976325  1
  H  H3875  1  0.57965325  0.19635600  0.87976325  1
  H  H3876  1  0.57965325  0.44635600  0.12976325  1
  H  H3877  1  0.57965325  0.44635600  0.37976325  1
  H  H3878  1  0.57965325  0.44635600  0.62976325  1
  H  H3879  1  0.57965325  0.44635600  0.87976325  1
  H  H3880  1  0.57965325  0.69635600  0.12976325  1
  H  H3881  1  0.57965325  0.69635600  0.37976325  1
  H  H3882  1  0.57965325  0.69635600  0.62976325  1
  H  H3883  1  0.57965325  0.69635600  0.87976325  1
  H  H3884  1  0.57965325  0.94635600  0.12976325  1
  H  H3885  1  0.57965325  0.94635600  0.37976325  1
  H  H3886  1  0.57965325  0.94635600  0.62976325  1
  H  H3887  1  0.57965325  0.94635600  0.87976325  1
  H  H3888  1  0.82965325  0.19635600  0.12976325  1
  H  H3889  1  0.82965325  0.19635600  0.37976325  1
  H  H3890  1  0.82965325  0.19635600  0.62976325  1
  H  H3891  1  0.82965325  0.19635600  0.87976325  1
  H  H3892  1  0.82965325  0.44635600  0.12976325  1
  H  H3893  1  0.82965325  0.44635600  0.37976325  1
  H  H3894  1  0.82965325  0.44635600  0.62976325  1
  H  H3895  1  0.82965325  0.44635600  0.87976325  1
  H  H3896  1  0.82965325  0.69635600  0.12976325  1
  H  H3897  1  0.82965325  0.69635600  0.37976325  1
  H  H3898  1  0.82965325  0.69635600  0.62976325  1
  H  H3899  1  0.82965325  0.69635600  0.87976325  1
  H  H3900  1  0.82965325  0.94635600  0.12976325  1
  H  H3901  1  0.82965325  0.94635600  0.37976325  1
  H  H3902  1  0.82965325  0.94635600  0.62976325  1
  H  H3903  1  0.82965325  0.94635600  0.87976325  1
  H  H3904  1  0.17034675  0.05364400  0.12023675  1
  H  H3905  1  0.17034675  0.05364400  0.37023675  1
  H  H3906  1  0.17034675  0.05364400  0.62023675  1
  H  H3907  1  0.17034675  0.05364400  0.87023675  1
  H  H3908  1  0.17034675  0.30364400  0.12023675  1
  H  H3909  1  0.17034675  0.30364400  0.37023675  1
  H  H3910  1  0.17034675  0.30364400  0.62023675  1
  H  H3911  1  0.17034675  0.30364400  0.87023675  1
  H  H3912  1  0.17034675  0.55364400  0.12023675  1
  H  H3913  1  0.17034675  0.55364400  0.37023675  1
  H  H3914  1  0.17034675  0.55364400  0.62023675  1
  H  H3915  1  0.17034675  0.55364400  0.87023675  1
  H  H3916  1  0.17034675  0.80364400  0.12023675  1
  H  H3917  1  0.17034675  0.80364400  0.37023675  1
  H  H3918  1  0.17034675  0.80364400  0.62023675  1
  H  H3919  1  0.17034675  0.80364400  0.87023675  1
  H  H3920  1  0.42034675  0.05364400  0.12023675  1
  H  H3921  1  0.42034675  0.05364400  0.37023675  1
  H  H3922  1  0.42034675  0.05364400  0.62023675  1
  H  H3923  1  0.42034675  0.05364400  0.87023675  1
  H  H3924  1  0.42034675  0.30364400  0.12023675  1
  H  H3925  1  0.42034675  0.30364400  0.37023675  1
  H  H3926  1  0.42034675  0.30364400  0.62023675  1
  H  H3927  1  0.42034675  0.30364400  0.87023675  1
  H  H3928  1  0.42034675  0.55364400  0.12023675  1
  H  H3929  1  0.42034675  0.55364400  0.37023675  1
  H  H3930  1  0.42034675  0.55364400  0.62023675  1
  H  H3931  1  0.42034675  0.55364400  0.87023675  1
  H  H3932  1  0.42034675  0.80364400  0.12023675  1
  H  H3933  1  0.42034675  0.80364400  0.37023675  1
  H  H3934  1  0.42034675  0.80364400  0.62023675  1
  H  H3935  1  0.42034675  0.80364400  0.87023675  1
  H  H3936  1  0.67034675  0.05364400  0.12023675  1
  H  H3937  1  0.67034675  0.05364400  0.37023675  1
  H  H3938  1  0.67034675  0.05364400  0.62023675  1
  H  H3939  1  0.67034675  0.05364400  0.87023675  1
  H  H3940  1  0.67034675  0.30364400  0.12023675  1
  H  H3941  1  0.67034675  0.30364400  0.37023675  1
  H  H3942  1  0.67034675  0.30364400  0.62023675  1
  H  H3943  1  0.67034675  0.30364400  0.87023675  1
  H  H3944  1  0.67034675  0.55364400  0.12023675  1
  H  H3945  1  0.67034675  0.55364400  0.37023675  1
  H  H3946  1  0.67034675  0.55364400  0.62023675  1
  H  H3947  1  0.67034675  0.55364400  0.87023675  1
  H  H3948  1  0.67034675  0.80364400  0.12023675  1
  H  H3949  1  0.67034675  0.80364400  0.37023675  1
  H  H3950  1  0.67034675  0.80364400  0.62023675  1
  H  H3951  1  0.67034675  0.80364400  0.87023675  1
  H  H3952  1  0.92034675  0.05364400  0.12023675  1
  H  H3953  1  0.92034675  0.05364400  0.37023675  1
  H  H3954  1  0.92034675  0.05364400  0.62023675  1
  H  H3955  1  0.92034675  0.05364400  0.87023675  1
  H  H3956  1  0.92034675  0.30364400  0.12023675  1
  H  H3957  1  0.92034675  0.30364400  0.37023675  1
  H  H3958  1  0.92034675  0.30364400  0.62023675  1
  H  H3959  1  0.92034675  0.30364400  0.87023675  1
  H  H3960  1  0.92034675  0.55364400  0.12023675  1
  H  H3961  1  0.92034675  0.55364400  0.37023675  1
  H  H3962  1  0.92034675  0.55364400  0.62023675  1
  H  H3963  1  0.92034675  0.55364400  0.87023675  1
  H  H3964  1  0.92034675  0.80364400  0.12023675  1
  H  H3965  1  0.92034675  0.80364400  0.37023675  1
  H  H3966  1  0.92034675  0.80364400  0.62023675  1
  H  H3967  1  0.92034675  0.80364400  0.87023675  1
  H  H3968  1  0.09025200  0.23718575  0.11872950  1
  H  H3969  1  0.09025200  0.23718575  0.36872950  1
  H  H3970  1  0.09025200  0.23718575  0.61872950  1
  H  H3971  1  0.09025200  0.23718575  0.86872950  1
  H  H3972  1  0.09025200  0.48718575  0.11872950  1
  H  H3973  1  0.09025200  0.48718575  0.36872950  1
  H  H3974  1  0.09025200  0.48718575  0.61872950  1
  H  H3975  1  0.09025200  0.48718575  0.86872950  1
  H  H3976  1  0.09025200  0.73718575  0.11872950  1
  H  H3977  1  0.09025200  0.73718575  0.36872950  1
  H  H3978  1  0.09025200  0.73718575  0.61872950  1
  H  H3979  1  0.09025200  0.73718575  0.86872950  1
  H  H3980  1  0.09025200  0.98718575  0.11872950  1
  H  H3981  1  0.09025200  0.98718575  0.36872950  1
  H  H3982  1  0.09025200  0.98718575  0.61872950  1
  H  H3983  1  0.09025200  0.98718575  0.86872950  1
  H  H3984  1  0.34025200  0.23718575  0.11872950  1
  H  H3985  1  0.34025200  0.23718575  0.36872950  1
  H  H3986  1  0.34025200  0.23718575  0.61872950  1
  H  H3987  1  0.34025200  0.23718575  0.86872950  1
  H  H3988  1  0.34025200  0.48718575  0.11872950  1
  H  H3989  1  0.34025200  0.48718575  0.36872950  1
  H  H3990  1  0.34025200  0.48718575  0.61872950  1
  H  H3991  1  0.34025200  0.48718575  0.86872950  1
  H  H3992  1  0.34025200  0.73718575  0.11872950  1
  H  H3993  1  0.34025200  0.73718575  0.36872950  1
  H  H3994  1  0.34025200  0.73718575  0.61872950  1
  H  H3995  1  0.34025200  0.73718575  0.86872950  1
  H  H3996  1  0.34025200  0.98718575  0.11872950  1
  H  H3997  1  0.34025200  0.98718575  0.36872950  1
  H  H3998  1  0.34025200  0.98718575  0.61872950  1
  H  H3999  1  0.34025200  0.98718575  0.86872950  1
  H  H4000  1  0.59025200  0.23718575  0.11872950  1
  H  H4001  1  0.59025200  0.23718575  0.36872950  1
  H  H4002  1  0.59025200  0.23718575  0.61872950  1
  H  H4003  1  0.59025200  0.23718575  0.86872950  1
  H  H4004  1  0.59025200  0.48718575  0.11872950  1
  H  H4005  1  0.59025200  0.48718575  0.36872950  1
  H  H4006  1  0.59025200  0.48718575  0.61872950  1
  H  H4007  1  0.59025200  0.48718575  0.86872950  1
  H  H4008  1  0.59025200  0.73718575  0.11872950  1
  H  H4009  1  0.59025200  0.73718575  0.36872950  1
  H  H4010  1  0.59025200  0.73718575  0.61872950  1
  H  H4011  1  0.59025200  0.73718575  0.86872950  1
  H  H4012  1  0.59025200  0.98718575  0.11872950  1
  H  H4013  1  0.59025200  0.98718575  0.36872950  1
  H  H4014  1  0.59025200  0.98718575  0.61872950  1
  H  H4015  1  0.59025200  0.98718575  0.86872950  1
  H  H4016  1  0.84025200  0.23718575  0.11872950  1
  H  H4017  1  0.84025200  0.23718575  0.36872950  1
  H  H4018  1  0.84025200  0.23718575  0.61872950  1
  H  H4019  1  0.84025200  0.23718575  0.86872950  1
  H  H4020  1  0.84025200  0.48718575  0.11872950  1
  H  H4021  1  0.84025200  0.48718575  0.36872950  1
  H  H4022  1  0.84025200  0.48718575  0.61872950  1
  H  H4023  1  0.84025200  0.48718575  0.86872950  1
  H  H4024  1  0.84025200  0.73718575  0.11872950  1
  H  H4025  1  0.84025200  0.73718575  0.36872950  1
  H  H4026  1  0.84025200  0.73718575  0.61872950  1
  H  H4027  1  0.84025200  0.73718575  0.86872950  1
  H  H4028  1  0.84025200  0.98718575  0.11872950  1
  H  H4029  1  0.84025200  0.98718575  0.36872950  1
  H  H4030  1  0.84025200  0.98718575  0.61872950  1
  H  H4031  1  0.84025200  0.98718575  0.86872950  1
  H  H4032  1  0.15974800  0.01281425  0.13127050  1
  H  H4033  1  0.15974800  0.01281425  0.38127050  1
  H  H4034  1  0.15974800  0.01281425  0.63127050  1
  H  H4035  1  0.15974800  0.01281425  0.88127050  1
  H  H4036  1  0.15974800  0.26281425  0.13127050  1
  H  H4037  1  0.15974800  0.26281425  0.38127050  1
  H  H4038  1  0.15974800  0.26281425  0.63127050  1
  H  H4039  1  0.15974800  0.26281425  0.88127050  1
  H  H4040  1  0.15974800  0.51281425  0.13127050  1
  H  H4041  1  0.15974800  0.51281425  0.38127050  1
  H  H4042  1  0.15974800  0.51281425  0.63127050  1
  H  H4043  1  0.15974800  0.51281425  0.88127050  1
  H  H4044  1  0.15974800  0.76281425  0.13127050  1
  H  H4045  1  0.15974800  0.76281425  0.38127050  1
  H  H4046  1  0.15974800  0.76281425  0.63127050  1
  H  H4047  1  0.15974800  0.76281425  0.88127050  1
  H  H4048  1  0.40974800  0.01281425  0.13127050  1
  H  H4049  1  0.40974800  0.01281425  0.38127050  1
  H  H4050  1  0.40974800  0.01281425  0.63127050  1
  H  H4051  1  0.40974800  0.01281425  0.88127050  1
  H  H4052  1  0.40974800  0.26281425  0.13127050  1
  H  H4053  1  0.40974800  0.26281425  0.38127050  1
  H  H4054  1  0.40974800  0.26281425  0.63127050  1
  H  H4055  1  0.40974800  0.26281425  0.88127050  1
  H  H4056  1  0.40974800  0.51281425  0.13127050  1
  H  H4057  1  0.40974800  0.51281425  0.38127050  1
  H  H4058  1  0.40974800  0.51281425  0.63127050  1
  H  H4059  1  0.40974800  0.51281425  0.88127050  1
  H  H4060  1  0.40974800  0.76281425  0.13127050  1
  H  H4061  1  0.40974800  0.76281425  0.38127050  1
  H  H4062  1  0.40974800  0.76281425  0.63127050  1
  H  H4063  1  0.40974800  0.76281425  0.88127050  1
  H  H4064  1  0.65974800  0.01281425  0.13127050  1
  H  H4065  1  0.65974800  0.01281425  0.38127050  1
  H  H4066  1  0.65974800  0.01281425  0.63127050  1
  H  H4067  1  0.65974800  0.01281425  0.88127050  1
  H  H4068  1  0.65974800  0.26281425  0.13127050  1
  H  H4069  1  0.65974800  0.26281425  0.38127050  1
  H  H4070  1  0.65974800  0.26281425  0.63127050  1
  H  H4071  1  0.65974800  0.26281425  0.88127050  1
  H  H4072  1  0.65974800  0.51281425  0.13127050  1
  H  H4073  1  0.65974800  0.51281425  0.38127050  1
  H  H4074  1  0.65974800  0.51281425  0.63127050  1
  H  H4075  1  0.65974800  0.51281425  0.88127050  1
  H  H4076  1  0.65974800  0.76281425  0.13127050  1
  H  H4077  1  0.65974800  0.76281425  0.38127050  1
  H  H4078  1  0.65974800  0.76281425  0.63127050  1
  H  H4079  1  0.65974800  0.76281425  0.88127050  1
  H  H4080  1  0.90974800  0.01281425  0.13127050  1
  H  H4081  1  0.90974800  0.01281425  0.38127050  1
  H  H4082  1  0.90974800  0.01281425  0.63127050  1
  H  H4083  1  0.90974800  0.01281425  0.88127050  1
  H  H4084  1  0.90974800  0.26281425  0.13127050  1
  H  H4085  1  0.90974800  0.26281425  0.38127050  1
  H  H4086  1  0.90974800  0.26281425  0.63127050  1
  H  H4087  1  0.90974800  0.26281425  0.88127050  1
  H  H4088  1  0.90974800  0.51281425  0.13127050  1
  H  H4089  1  0.90974800  0.51281425  0.38127050  1
  H  H4090  1  0.90974800  0.51281425  0.63127050  1
  H  H4091  1  0.90974800  0.51281425  0.88127050  1
  H  H4092  1  0.90974800  0.76281425  0.13127050  1
  H  H4093  1  0.90974800  0.76281425  0.38127050  1
  H  H4094  1  0.90974800  0.76281425  0.63127050  1
  H  H4095  1  0.90974800  0.76281425  0.88127050  1
  H  H4096  1  0.05644950  0.22220175  0.13799100  1
  H  H4097  1  0.05644950  0.22220175  0.38799100  1
  H  H4098  1  0.05644950  0.22220175  0.63799100  1
  H  H4099  1  0.05644950  0.22220175  0.88799100  1
  H  H4100  1  0.05644950  0.47220175  0.13799100  1
  H  H4101  1  0.05644950  0.47220175  0.38799100  1
  H  H4102  1  0.05644950  0.47220175  0.63799100  1
  H  H4103  1  0.05644950  0.47220175  0.88799100  1
  H  H4104  1  0.05644950  0.72220175  0.13799100  1
  H  H4105  1  0.05644950  0.72220175  0.38799100  1
  H  H4106  1  0.05644950  0.72220175  0.63799100  1
  H  H4107  1  0.05644950  0.72220175  0.88799100  1
  H  H4108  1  0.05644950  0.97220175  0.13799100  1
  H  H4109  1  0.05644950  0.97220175  0.38799100  1
  H  H4110  1  0.05644950  0.97220175  0.63799100  1
  H  H4111  1  0.05644950  0.97220175  0.88799100  1
  H  H4112  1  0.30644950  0.22220175  0.13799100  1
  H  H4113  1  0.30644950  0.22220175  0.38799100  1
  H  H4114  1  0.30644950  0.22220175  0.63799100  1
  H  H4115  1  0.30644950  0.22220175  0.88799100  1
  H  H4116  1  0.30644950  0.47220175  0.13799100  1
  H  H4117  1  0.30644950  0.47220175  0.38799100  1
  H  H4118  1  0.30644950  0.47220175  0.63799100  1
  H  H4119  1  0.30644950  0.47220175  0.88799100  1
  H  H4120  1  0.30644950  0.72220175  0.13799100  1
  H  H4121  1  0.30644950  0.72220175  0.38799100  1
  H  H4122  1  0.30644950  0.72220175  0.63799100  1
  H  H4123  1  0.30644950  0.72220175  0.88799100  1
  H  H4124  1  0.30644950  0.97220175  0.13799100  1
  H  H4125  1  0.30644950  0.97220175  0.38799100  1
  H  H4126  1  0.30644950  0.97220175  0.63799100  1
  H  H4127  1  0.30644950  0.97220175  0.88799100  1
  H  H4128  1  0.55644950  0.22220175  0.13799100  1
  H  H4129  1  0.55644950  0.22220175  0.38799100  1
  H  H4130  1  0.55644950  0.22220175  0.63799100  1
  H  H4131  1  0.55644950  0.22220175  0.88799100  1
  H  H4132  1  0.55644950  0.47220175  0.13799100  1
  H  H4133  1  0.55644950  0.47220175  0.38799100  1
  H  H4134  1  0.55644950  0.47220175  0.63799100  1
  H  H4135  1  0.55644950  0.47220175  0.88799100  1
  H  H4136  1  0.55644950  0.72220175  0.13799100  1
  H  H4137  1  0.55644950  0.72220175  0.38799100  1
  H  H4138  1  0.55644950  0.72220175  0.63799100  1
  H  H4139  1  0.55644950  0.72220175  0.88799100  1
  H  H4140  1  0.55644950  0.97220175  0.13799100  1
  H  H4141  1  0.55644950  0.97220175  0.38799100  1
  H  H4142  1  0.55644950  0.97220175  0.63799100  1
  H  H4143  1  0.55644950  0.97220175  0.88799100  1
  H  H4144  1  0.80644950  0.22220175  0.13799100  1
  H  H4145  1  0.80644950  0.22220175  0.38799100  1
  H  H4146  1  0.80644950  0.22220175  0.63799100  1
  H  H4147  1  0.80644950  0.22220175  0.88799100  1
  H  H4148  1  0.80644950  0.47220175  0.13799100  1
  H  H4149  1  0.80644950  0.47220175  0.38799100  1
  H  H4150  1  0.80644950  0.47220175  0.63799100  1
  H  H4151  1  0.80644950  0.47220175  0.88799100  1
  H  H4152  1  0.80644950  0.72220175  0.13799100  1
  H  H4153  1  0.80644950  0.72220175  0.38799100  1
  H  H4154  1  0.80644950  0.72220175  0.63799100  1
  H  H4155  1  0.80644950  0.72220175  0.88799100  1
  H  H4156  1  0.80644950  0.97220175  0.13799100  1
  H  H4157  1  0.80644950  0.97220175  0.38799100  1
  H  H4158  1  0.80644950  0.97220175  0.63799100  1
  H  H4159  1  0.80644950  0.97220175  0.88799100  1
  H  H4160  1  0.19355050  0.02779825  0.11200900  1
  H  H4161  1  0.19355050  0.02779825  0.36200900  1
  H  H4162  1  0.19355050  0.02779825  0.61200900  1
  H  H4163  1  0.19355050  0.02779825  0.86200900  1
  H  H4164  1  0.19355050  0.27779825  0.11200900  1
  H  H4165  1  0.19355050  0.27779825  0.36200900  1
  H  H4166  1  0.19355050  0.27779825  0.61200900  1
  H  H4167  1  0.19355050  0.27779825  0.86200900  1
  H  H4168  1  0.19355050  0.52779825  0.11200900  1
  H  H4169  1  0.19355050  0.52779825  0.36200900  1
  H  H4170  1  0.19355050  0.52779825  0.61200900  1
  H  H4171  1  0.19355050  0.52779825  0.86200900  1
  H  H4172  1  0.19355050  0.77779825  0.11200900  1
  H  H4173  1  0.19355050  0.77779825  0.36200900  1
  H  H4174  1  0.19355050  0.77779825  0.61200900  1
  H  H4175  1  0.19355050  0.77779825  0.86200900  1
  H  H4176  1  0.44355050  0.02779825  0.11200900  1
  H  H4177  1  0.44355050  0.02779825  0.36200900  1
  H  H4178  1  0.44355050  0.02779825  0.61200900  1
  H  H4179  1  0.44355050  0.02779825  0.86200900  1
  H  H4180  1  0.44355050  0.27779825  0.11200900  1
  H  H4181  1  0.44355050  0.27779825  0.36200900  1
  H  H4182  1  0.44355050  0.27779825  0.61200900  1
  H  H4183  1  0.44355050  0.27779825  0.86200900  1
  H  H4184  1  0.44355050  0.52779825  0.11200900  1
  H  H4185  1  0.44355050  0.52779825  0.36200900  1
  H  H4186  1  0.44355050  0.52779825  0.61200900  1
  H  H4187  1  0.44355050  0.52779825  0.86200900  1
  H  H4188  1  0.44355050  0.77779825  0.11200900  1
  H  H4189  1  0.44355050  0.77779825  0.36200900  1
  H  H4190  1  0.44355050  0.77779825  0.61200900  1
  H  H4191  1  0.44355050  0.77779825  0.86200900  1
  H  H4192  1  0.69355050  0.02779825  0.11200900  1
  H  H4193  1  0.69355050  0.02779825  0.36200900  1
  H  H4194  1  0.69355050  0.02779825  0.61200900  1
  H  H4195  1  0.69355050  0.02779825  0.86200900  1
  H  H4196  1  0.69355050  0.27779825  0.11200900  1
  H  H4197  1  0.69355050  0.27779825  0.36200900  1
  H  H4198  1  0.69355050  0.27779825  0.61200900  1
  H  H4199  1  0.69355050  0.27779825  0.86200900  1
  H  H4200  1  0.69355050  0.52779825  0.11200900  1
  H  H4201  1  0.69355050  0.52779825  0.36200900  1
  H  H4202  1  0.69355050  0.52779825  0.61200900  1
  H  H4203  1  0.69355050  0.52779825  0.86200900  1
  H  H4204  1  0.69355050  0.77779825  0.11200900  1
  H  H4205  1  0.69355050  0.77779825  0.36200900  1
  H  H4206  1  0.69355050  0.77779825  0.61200900  1
  H  H4207  1  0.69355050  0.77779825  0.86200900  1
  H  H4208  1  0.94355050  0.02779825  0.11200900  1
  H  H4209  1  0.94355050  0.02779825  0.36200900  1
  H  H4210  1  0.94355050  0.02779825  0.61200900  1
  H  H4211  1  0.94355050  0.02779825  0.86200900  1
  H  H4212  1  0.94355050  0.27779825  0.11200900  1
  H  H4213  1  0.94355050  0.27779825  0.36200900  1
  H  H4214  1  0.94355050  0.27779825  0.61200900  1
  H  H4215  1  0.94355050  0.27779825  0.86200900  1
  H  H4216  1  0.94355050  0.52779825  0.11200900  1
  H  H4217  1  0.94355050  0.52779825  0.36200900  1
  H  H4218  1  0.94355050  0.52779825  0.61200900  1
  H  H4219  1  0.94355050  0.52779825  0.86200900  1
  H  H4220  1  0.94355050  0.77779825  0.11200900  1
  H  H4221  1  0.94355050  0.77779825  0.36200900  1
  H  H4222  1  0.94355050  0.77779825  0.61200900  1
  H  H4223  1  0.94355050  0.77779825  0.86200900  1
  H  H4224  1  0.21083525  0.10197825  0.03409550  1
  H  H4225  1  0.21083525  0.10197825  0.28409550  1
  H  H4226  1  0.21083525  0.10197825  0.53409550  1
  H  H4227  1  0.21083525  0.10197825  0.78409550  1
  H  H4228  1  0.21083525  0.35197825  0.03409550  1
  H  H4229  1  0.21083525  0.35197825  0.28409550  1
  H  H4230  1  0.21083525  0.35197825  0.53409550  1
  H  H4231  1  0.21083525  0.35197825  0.78409550  1
  H  H4232  1  0.21083525  0.60197825  0.03409550  1
  H  H4233  1  0.21083525  0.60197825  0.28409550  1
  H  H4234  1  0.21083525  0.60197825  0.53409550  1
  H  H4235  1  0.21083525  0.60197825  0.78409550  1
  H  H4236  1  0.21083525  0.85197825  0.03409550  1
  H  H4237  1  0.21083525  0.85197825  0.28409550  1
  H  H4238  1  0.21083525  0.85197825  0.53409550  1
  H  H4239  1  0.21083525  0.85197825  0.78409550  1
  H  H4240  1  0.46083525  0.10197825  0.03409550  1
  H  H4241  1  0.46083525  0.10197825  0.28409550  1
  H  H4242  1  0.46083525  0.10197825  0.53409550  1
  H  H4243  1  0.46083525  0.10197825  0.78409550  1
  H  H4244  1  0.46083525  0.35197825  0.03409550  1
  H  H4245  1  0.46083525  0.35197825  0.28409550  1
  H  H4246  1  0.46083525  0.35197825  0.53409550  1
  H  H4247  1  0.46083525  0.35197825  0.78409550  1
  H  H4248  1  0.46083525  0.60197825  0.03409550  1
  H  H4249  1  0.46083525  0.60197825  0.28409550  1
  H  H4250  1  0.46083525  0.60197825  0.53409550  1
  H  H4251  1  0.46083525  0.60197825  0.78409550  1
  H  H4252  1  0.46083525  0.85197825  0.03409550  1
  H  H4253  1  0.46083525  0.85197825  0.28409550  1
  H  H4254  1  0.46083525  0.85197825  0.53409550  1
  H  H4255  1  0.46083525  0.85197825  0.78409550  1
  H  H4256  1  0.71083525  0.10197825  0.03409550  1
  H  H4257  1  0.71083525  0.10197825  0.28409550  1
  H  H4258  1  0.71083525  0.10197825  0.53409550  1
  H  H4259  1  0.71083525  0.10197825  0.78409550  1
  H  H4260  1  0.71083525  0.35197825  0.03409550  1
  H  H4261  1  0.71083525  0.35197825  0.28409550  1
  H  H4262  1  0.71083525  0.35197825  0.53409550  1
  H  H4263  1  0.71083525  0.35197825  0.78409550  1
  H  H4264  1  0.71083525  0.60197825  0.03409550  1
  H  H4265  1  0.71083525  0.60197825  0.28409550  1
  H  H4266  1  0.71083525  0.60197825  0.53409550  1
  H  H4267  1  0.71083525  0.60197825  0.78409550  1
  H  H4268  1  0.71083525  0.85197825  0.03409550  1
  H  H4269  1  0.71083525  0.85197825  0.28409550  1
  H  H4270  1  0.71083525  0.85197825  0.53409550  1
  H  H4271  1  0.71083525  0.85197825  0.78409550  1
  H  H4272  1  0.96083525  0.10197825  0.03409550  1
  H  H4273  1  0.96083525  0.10197825  0.28409550  1
  H  H4274  1  0.96083525  0.10197825  0.53409550  1
  H  H4275  1  0.96083525  0.10197825  0.78409550  1
  H  H4276  1  0.96083525  0.35197825  0.03409550  1
  H  H4277  1  0.96083525  0.35197825  0.28409550  1
  H  H4278  1  0.96083525  0.35197825  0.53409550  1
  H  H4279  1  0.96083525  0.35197825  0.78409550  1
  H  H4280  1  0.96083525  0.60197825  0.03409550  1
  H  H4281  1  0.96083525  0.60197825  0.28409550  1
  H  H4282  1  0.96083525  0.60197825  0.53409550  1
  H  H4283  1  0.96083525  0.60197825  0.78409550  1
  H  H4284  1  0.96083525  0.85197825  0.03409550  1
  H  H4285  1  0.96083525  0.85197825  0.28409550  1
  H  H4286  1  0.96083525  0.85197825  0.53409550  1
  H  H4287  1  0.96083525  0.85197825  0.78409550  1
  H  H4288  1  0.03916475  0.14802175  0.21590450  1
  H  H4289  1  0.03916475  0.14802175  0.46590450  1
  H  H4290  1  0.03916475  0.14802175  0.71590450  1
  H  H4291  1  0.03916475  0.14802175  0.96590450  1
  H  H4292  1  0.03916475  0.39802175  0.21590450  1
  H  H4293  1  0.03916475  0.39802175  0.46590450  1
  H  H4294  1  0.03916475  0.39802175  0.71590450  1
  H  H4295  1  0.03916475  0.39802175  0.96590450  1
  H  H4296  1  0.03916475  0.64802175  0.21590450  1
  H  H4297  1  0.03916475  0.64802175  0.46590450  1
  H  H4298  1  0.03916475  0.64802175  0.71590450  1
  H  H4299  1  0.03916475  0.64802175  0.96590450  1
  H  H4300  1  0.03916475  0.89802175  0.21590450  1
  H  H4301  1  0.03916475  0.89802175  0.46590450  1
  H  H4302  1  0.03916475  0.89802175  0.71590450  1
  H  H4303  1  0.03916475  0.89802175  0.96590450  1
  H  H4304  1  0.28916475  0.14802175  0.21590450  1
  H  H4305  1  0.28916475  0.14802175  0.46590450  1
  H  H4306  1  0.28916475  0.14802175  0.71590450  1
  H  H4307  1  0.28916475  0.14802175  0.96590450  1
  H  H4308  1  0.28916475  0.39802175  0.21590450  1
  H  H4309  1  0.28916475  0.39802175  0.46590450  1
  H  H4310  1  0.28916475  0.39802175  0.71590450  1
  H  H4311  1  0.28916475  0.39802175  0.96590450  1
  H  H4312  1  0.28916475  0.64802175  0.21590450  1
  H  H4313  1  0.28916475  0.64802175  0.46590450  1
  H  H4314  1  0.28916475  0.64802175  0.71590450  1
  H  H4315  1  0.28916475  0.64802175  0.96590450  1
  H  H4316  1  0.28916475  0.89802175  0.21590450  1
  H  H4317  1  0.28916475  0.89802175  0.46590450  1
  H  H4318  1  0.28916475  0.89802175  0.71590450  1
  H  H4319  1  0.28916475  0.89802175  0.96590450  1
  H  H4320  1  0.53916475  0.14802175  0.21590450  1
  H  H4321  1  0.53916475  0.14802175  0.46590450  1
  H  H4322  1  0.53916475  0.14802175  0.71590450  1
  H  H4323  1  0.53916475  0.14802175  0.96590450  1
  H  H4324  1  0.53916475  0.39802175  0.21590450  1
  H  H4325  1  0.53916475  0.39802175  0.46590450  1
  H  H4326  1  0.53916475  0.39802175  0.71590450  1
  H  H4327  1  0.53916475  0.39802175  0.96590450  1
  H  H4328  1  0.53916475  0.64802175  0.21590450  1
  H  H4329  1  0.53916475  0.64802175  0.46590450  1
  H  H4330  1  0.53916475  0.64802175  0.71590450  1
  H  H4331  1  0.53916475  0.64802175  0.96590450  1
  H  H4332  1  0.53916475  0.89802175  0.21590450  1
  H  H4333  1  0.53916475  0.89802175  0.46590450  1
  H  H4334  1  0.53916475  0.89802175  0.71590450  1
  H  H4335  1  0.53916475  0.89802175  0.96590450  1
  H  H4336  1  0.78916475  0.14802175  0.21590450  1
  H  H4337  1  0.78916475  0.14802175  0.46590450  1
  H  H4338  1  0.78916475  0.14802175  0.71590450  1
  H  H4339  1  0.78916475  0.14802175  0.96590450  1
  H  H4340  1  0.78916475  0.39802175  0.21590450  1
  H  H4341  1  0.78916475  0.39802175  0.46590450  1
  H  H4342  1  0.78916475  0.39802175  0.71590450  1
  H  H4343  1  0.78916475  0.39802175  0.96590450  1
  H  H4344  1  0.78916475  0.64802175  0.21590450  1
  H  H4345  1  0.78916475  0.64802175  0.46590450  1
  H  H4346  1  0.78916475  0.64802175  0.71590450  1
  H  H4347  1  0.78916475  0.64802175  0.96590450  1
  H  H4348  1  0.78916475  0.89802175  0.21590450  1
  H  H4349  1  0.78916475  0.89802175  0.46590450  1
  H  H4350  1  0.78916475  0.89802175  0.71590450  1
  H  H4351  1  0.78916475  0.89802175  0.96590450  1
  H  H4352  1  0.24741700  0.09018150  0.03230900  1
  H  H4353  1  0.24741700  0.09018150  0.28230900  1
  H  H4354  1  0.24741700  0.09018150  0.53230900  1
  H  H4355  1  0.24741700  0.09018150  0.78230900  1
  H  H4356  1  0.24741700  0.34018150  0.03230900  1
  H  H4357  1  0.24741700  0.34018150  0.28230900  1
  H  H4358  1  0.24741700  0.34018150  0.53230900  1
  H  H4359  1  0.24741700  0.34018150  0.78230900  1
  H  H4360  1  0.24741700  0.59018150  0.03230900  1
  H  H4361  1  0.24741700  0.59018150  0.28230900  1
  H  H4362  1  0.24741700  0.59018150  0.53230900  1
  H  H4363  1  0.24741700  0.59018150  0.78230900  1
  H  H4364  1  0.24741700  0.84018150  0.03230900  1
  H  H4365  1  0.24741700  0.84018150  0.28230900  1
  H  H4366  1  0.24741700  0.84018150  0.53230900  1
  H  H4367  1  0.24741700  0.84018150  0.78230900  1
  H  H4368  1  0.49741700  0.09018150  0.03230900  1
  H  H4369  1  0.49741700  0.09018150  0.28230900  1
  H  H4370  1  0.49741700  0.09018150  0.53230900  1
  H  H4371  1  0.49741700  0.09018150  0.78230900  1
  H  H4372  1  0.49741700  0.34018150  0.03230900  1
  H  H4373  1  0.49741700  0.34018150  0.28230900  1
  H  H4374  1  0.49741700  0.34018150  0.53230900  1
  H  H4375  1  0.49741700  0.34018150  0.78230900  1
  H  H4376  1  0.49741700  0.59018150  0.03230900  1
  H  H4377  1  0.49741700  0.59018150  0.28230900  1
  H  H4378  1  0.49741700  0.59018150  0.53230900  1
  H  H4379  1  0.49741700  0.59018150  0.78230900  1
  H  H4380  1  0.49741700  0.84018150  0.03230900  1
  H  H4381  1  0.49741700  0.84018150  0.28230900  1
  H  H4382  1  0.49741700  0.84018150  0.53230900  1
  H  H4383  1  0.49741700  0.84018150  0.78230900  1
  H  H4384  1  0.74741700  0.09018150  0.03230900  1
  H  H4385  1  0.74741700  0.09018150  0.28230900  1
  H  H4386  1  0.74741700  0.09018150  0.53230900  1
  H  H4387  1  0.74741700  0.09018150  0.78230900  1
  H  H4388  1  0.74741700  0.34018150  0.03230900  1
  H  H4389  1  0.74741700  0.34018150  0.28230900  1
  H  H4390  1  0.74741700  0.34018150  0.53230900  1
  H  H4391  1  0.74741700  0.34018150  0.78230900  1
  H  H4392  1  0.74741700  0.59018150  0.03230900  1
  H  H4393  1  0.74741700  0.59018150  0.28230900  1
  H  H4394  1  0.74741700  0.59018150  0.53230900  1
  H  H4395  1  0.74741700  0.59018150  0.78230900  1
  H  H4396  1  0.74741700  0.84018150  0.03230900  1
  H  H4397  1  0.74741700  0.84018150  0.28230900  1
  H  H4398  1  0.74741700  0.84018150  0.53230900  1
  H  H4399  1  0.74741700  0.84018150  0.78230900  1
  H  H4400  1  0.99741700  0.09018150  0.03230900  1
  H  H4401  1  0.99741700  0.09018150  0.28230900  1
  H  H4402  1  0.99741700  0.09018150  0.53230900  1
  H  H4403  1  0.99741700  0.09018150  0.78230900  1
  H  H4404  1  0.99741700  0.34018150  0.03230900  1
  H  H4405  1  0.99741700  0.34018150  0.28230900  1
  H  H4406  1  0.99741700  0.34018150  0.53230900  1
  H  H4407  1  0.99741700  0.34018150  0.78230900  1
  H  H4408  1  0.99741700  0.59018150  0.03230900  1
  H  H4409  1  0.99741700  0.59018150  0.28230900  1
  H  H4410  1  0.99741700  0.59018150  0.53230900  1
  H  H4411  1  0.99741700  0.59018150  0.78230900  1
  H  H4412  1  0.99741700  0.84018150  0.03230900  1
  H  H4413  1  0.99741700  0.84018150  0.28230900  1
  H  H4414  1  0.99741700  0.84018150  0.53230900  1
  H  H4415  1  0.99741700  0.84018150  0.78230900  1
  H  H4416  1  0.00258300  0.15981850  0.21769100  1
  H  H4417  1  0.00258300  0.15981850  0.46769100  1
  H  H4418  1  0.00258300  0.15981850  0.71769100  1
  H  H4419  1  0.00258300  0.15981850  0.96769100  1
  H  H4420  1  0.00258300  0.40981850  0.21769100  1
  H  H4421  1  0.00258300  0.40981850  0.46769100  1
  H  H4422  1  0.00258300  0.40981850  0.71769100  1
  H  H4423  1  0.00258300  0.40981850  0.96769100  1
  H  H4424  1  0.00258300  0.65981850  0.21769100  1
  H  H4425  1  0.00258300  0.65981850  0.46769100  1
  H  H4426  1  0.00258300  0.65981850  0.71769100  1
  H  H4427  1  0.00258300  0.65981850  0.96769100  1
  H  H4428  1  0.00258300  0.90981850  0.21769100  1
  H  H4429  1  0.00258300  0.90981850  0.46769100  1
  H  H4430  1  0.00258300  0.90981850  0.71769100  1
  H  H4431  1  0.00258300  0.90981850  0.96769100  1
  H  H4432  1  0.25258300  0.15981850  0.21769100  1
  H  H4433  1  0.25258300  0.15981850  0.46769100  1
  H  H4434  1  0.25258300  0.15981850  0.71769100  1
  H  H4435  1  0.25258300  0.15981850  0.96769100  1
  H  H4436  1  0.25258300  0.40981850  0.21769100  1
  H  H4437  1  0.25258300  0.40981850  0.46769100  1
  H  H4438  1  0.25258300  0.40981850  0.71769100  1
  H  H4439  1  0.25258300  0.40981850  0.96769100  1
  H  H4440  1  0.25258300  0.65981850  0.21769100  1
  H  H4441  1  0.25258300  0.65981850  0.46769100  1
  H  H4442  1  0.25258300  0.65981850  0.71769100  1
  H  H4443  1  0.25258300  0.65981850  0.96769100  1
  H  H4444  1  0.25258300  0.90981850  0.21769100  1
  H  H4445  1  0.25258300  0.90981850  0.46769100  1
  H  H4446  1  0.25258300  0.90981850  0.71769100  1
  H  H4447  1  0.25258300  0.90981850  0.96769100  1
  H  H4448  1  0.50258300  0.15981850  0.21769100  1
  H  H4449  1  0.50258300  0.15981850  0.46769100  1
  H  H4450  1  0.50258300  0.15981850  0.71769100  1
  H  H4451  1  0.50258300  0.15981850  0.96769100  1
  H  H4452  1  0.50258300  0.40981850  0.21769100  1
  H  H4453  1  0.50258300  0.40981850  0.46769100  1
  H  H4454  1  0.50258300  0.40981850  0.71769100  1
  H  H4455  1  0.50258300  0.40981850  0.96769100  1
  H  H4456  1  0.50258300  0.65981850  0.21769100  1
  H  H4457  1  0.50258300  0.65981850  0.46769100  1
  H  H4458  1  0.50258300  0.65981850  0.71769100  1
  H  H4459  1  0.50258300  0.65981850  0.96769100  1
  H  H4460  1  0.50258300  0.90981850  0.21769100  1
  H  H4461  1  0.50258300  0.90981850  0.46769100  1
  H  H4462  1  0.50258300  0.90981850  0.71769100  1
  H  H4463  1  0.50258300  0.90981850  0.96769100  1
  H  H4464  1  0.75258300  0.15981850  0.21769100  1
  H  H4465  1  0.75258300  0.15981850  0.46769100  1
  H  H4466  1  0.75258300  0.15981850  0.71769100  1
  H  H4467  1  0.75258300  0.15981850  0.96769100  1
  H  H4468  1  0.75258300  0.40981850  0.21769100  1
  H  H4469  1  0.75258300  0.40981850  0.46769100  1
  H  H4470  1  0.75258300  0.40981850  0.71769100  1
  H  H4471  1  0.75258300  0.40981850  0.96769100  1
  H  H4472  1  0.75258300  0.65981850  0.21769100  1
  H  H4473  1  0.75258300  0.65981850  0.46769100  1
  H  H4474  1  0.75258300  0.65981850  0.71769100  1
  H  H4475  1  0.75258300  0.65981850  0.96769100  1
  H  H4476  1  0.75258300  0.90981850  0.21769100  1
  H  H4477  1  0.75258300  0.90981850  0.46769100  1
  H  H4478  1  0.75258300  0.90981850  0.71769100  1
  H  H4479  1  0.75258300  0.90981850  0.96769100  1
  H  H4480  1  0.23944100  0.11229100  0.01173500  1
  H  H4481  1  0.23944100  0.11229100  0.26173500  1
  H  H4482  1  0.23944100  0.11229100  0.51173500  1
  H  H4483  1  0.23944100  0.11229100  0.76173500  1
  H  H4484  1  0.23944100  0.36229100  0.01173500  1
  H  H4485  1  0.23944100  0.36229100  0.26173500  1
  H  H4486  1  0.23944100  0.36229100  0.51173500  1
  H  H4487  1  0.23944100  0.36229100  0.76173500  1
  H  H4488  1  0.23944100  0.61229100  0.01173500  1
  H  H4489  1  0.23944100  0.61229100  0.26173500  1
  H  H4490  1  0.23944100  0.61229100  0.51173500  1
  H  H4491  1  0.23944100  0.61229100  0.76173500  1
  H  H4492  1  0.23944100  0.86229100  0.01173500  1
  H  H4493  1  0.23944100  0.86229100  0.26173500  1
  H  H4494  1  0.23944100  0.86229100  0.51173500  1
  H  H4495  1  0.23944100  0.86229100  0.76173500  1
  H  H4496  1  0.48944100  0.11229100  0.01173500  1
  H  H4497  1  0.48944100  0.11229100  0.26173500  1
  H  H4498  1  0.48944100  0.11229100  0.51173500  1
  H  H4499  1  0.48944100  0.11229100  0.76173500  1
  H  H4500  1  0.48944100  0.36229100  0.01173500  1
  H  H4501  1  0.48944100  0.36229100  0.26173500  1
  H  H4502  1  0.48944100  0.36229100  0.51173500  1
  H  H4503  1  0.48944100  0.36229100  0.76173500  1
  H  H4504  1  0.48944100  0.61229100  0.01173500  1
  H  H4505  1  0.48944100  0.61229100  0.26173500  1
  H  H4506  1  0.48944100  0.61229100  0.51173500  1
  H  H4507  1  0.48944100  0.61229100  0.76173500  1
  H  H4508  1  0.48944100  0.86229100  0.01173500  1
  H  H4509  1  0.48944100  0.86229100  0.26173500  1
  H  H4510  1  0.48944100  0.86229100  0.51173500  1
  H  H4511  1  0.48944100  0.86229100  0.76173500  1
  H  H4512  1  0.73944100  0.11229100  0.01173500  1
  H  H4513  1  0.73944100  0.11229100  0.26173500  1
  H  H4514  1  0.73944100  0.11229100  0.51173500  1
  H  H4515  1  0.73944100  0.11229100  0.76173500  1
  H  H4516  1  0.73944100  0.36229100  0.01173500  1
  H  H4517  1  0.73944100  0.36229100  0.26173500  1
  H  H4518  1  0.73944100  0.36229100  0.51173500  1
  H  H4519  1  0.73944100  0.36229100  0.76173500  1
  H  H4520  1  0.73944100  0.61229100  0.01173500  1
  H  H4521  1  0.73944100  0.61229100  0.26173500  1
  H  H4522  1  0.73944100  0.61229100  0.51173500  1
  H  H4523  1  0.73944100  0.61229100  0.76173500  1
  H  H4524  1  0.73944100  0.86229100  0.01173500  1
  H  H4525  1  0.73944100  0.86229100  0.26173500  1
  H  H4526  1  0.73944100  0.86229100  0.51173500  1
  H  H4527  1  0.73944100  0.86229100  0.76173500  1
  H  H4528  1  0.98944100  0.11229100  0.01173500  1
  H  H4529  1  0.98944100  0.11229100  0.26173500  1
  H  H4530  1  0.98944100  0.11229100  0.51173500  1
  H  H4531  1  0.98944100  0.11229100  0.76173500  1
  H  H4532  1  0.98944100  0.36229100  0.01173500  1
  H  H4533  1  0.98944100  0.36229100  0.26173500  1
  H  H4534  1  0.98944100  0.36229100  0.51173500  1
  H  H4535  1  0.98944100  0.36229100  0.76173500  1
  H  H4536  1  0.98944100  0.61229100  0.01173500  1
  H  H4537  1  0.98944100  0.61229100  0.26173500  1
  H  H4538  1  0.98944100  0.61229100  0.51173500  1
  H  H4539  1  0.98944100  0.61229100  0.76173500  1
  H  H4540  1  0.98944100  0.86229100  0.01173500  1
  H  H4541  1  0.98944100  0.86229100  0.26173500  1
  H  H4542  1  0.98944100  0.86229100  0.51173500  1
  H  H4543  1  0.98944100  0.86229100  0.76173500  1
  H  H4544  1  0.01055900  0.13770900  0.23826500  1
  H  H4545  1  0.01055900  0.13770900  0.48826500  1
  H  H4546  1  0.01055900  0.13770900  0.73826500  1
  H  H4547  1  0.01055900  0.13770900  0.98826500  1
  H  H4548  1  0.01055900  0.38770900  0.23826500  1
  H  H4549  1  0.01055900  0.38770900  0.48826500  1
  H  H4550  1  0.01055900  0.38770900  0.73826500  1
  H  H4551  1  0.01055900  0.38770900  0.98826500  1
  H  H4552  1  0.01055900  0.63770900  0.23826500  1
  H  H4553  1  0.01055900  0.63770900  0.48826500  1
  H  H4554  1  0.01055900  0.63770900  0.73826500  1
  H  H4555  1  0.01055900  0.63770900  0.98826500  1
  H  H4556  1  0.01055900  0.88770900  0.23826500  1
  H  H4557  1  0.01055900  0.88770900  0.48826500  1
  H  H4558  1  0.01055900  0.88770900  0.73826500  1
  H  H4559  1  0.01055900  0.88770900  0.98826500  1
  H  H4560  1  0.26055900  0.13770900  0.23826500  1
  H  H4561  1  0.26055900  0.13770900  0.48826500  1
  H  H4562  1  0.26055900  0.13770900  0.73826500  1
  H  H4563  1  0.26055900  0.13770900  0.98826500  1
  H  H4564  1  0.26055900  0.38770900  0.23826500  1
  H  H4565  1  0.26055900  0.38770900  0.48826500  1
  H  H4566  1  0.26055900  0.38770900  0.73826500  1
  H  H4567  1  0.26055900  0.38770900  0.98826500  1
  H  H4568  1  0.26055900  0.63770900  0.23826500  1
  H  H4569  1  0.26055900  0.63770900  0.48826500  1
  H  H4570  1  0.26055900  0.63770900  0.73826500  1
  H  H4571  1  0.26055900  0.63770900  0.98826500  1
  H  H4572  1  0.26055900  0.88770900  0.23826500  1
  H  H4573  1  0.26055900  0.88770900  0.48826500  1
  H  H4574  1  0.26055900  0.88770900  0.73826500  1
  H  H4575  1  0.26055900  0.88770900  0.98826500  1
  H  H4576  1  0.51055900  0.13770900  0.23826500  1
  H  H4577  1  0.51055900  0.13770900  0.48826500  1
  H  H4578  1  0.51055900  0.13770900  0.73826500  1
  H  H4579  1  0.51055900  0.13770900  0.98826500  1
  H  H4580  1  0.51055900  0.38770900  0.23826500  1
  H  H4581  1  0.51055900  0.38770900  0.48826500  1
  H  H4582  1  0.51055900  0.38770900  0.73826500  1
  H  H4583  1  0.51055900  0.38770900  0.98826500  1
  H  H4584  1  0.51055900  0.63770900  0.23826500  1
  H  H4585  1  0.51055900  0.63770900  0.48826500  1
  H  H4586  1  0.51055900  0.63770900  0.73826500  1
  H  H4587  1  0.51055900  0.63770900  0.98826500  1
  H  H4588  1  0.51055900  0.88770900  0.23826500  1
  H  H4589  1  0.51055900  0.88770900  0.48826500  1
  H  H4590  1  0.51055900  0.88770900  0.73826500  1
  H  H4591  1  0.51055900  0.88770900  0.98826500  1
  H  H4592  1  0.76055900  0.13770900  0.23826500  1
  H  H4593  1  0.76055900  0.13770900  0.48826500  1
  H  H4594  1  0.76055900  0.13770900  0.73826500  1
  H  H4595  1  0.76055900  0.13770900  0.98826500  1
  H  H4596  1  0.76055900  0.38770900  0.23826500  1
  H  H4597  1  0.76055900  0.38770900  0.48826500  1
  H  H4598  1  0.76055900  0.38770900  0.73826500  1
  H  H4599  1  0.76055900  0.38770900  0.98826500  1
  H  H4600  1  0.76055900  0.63770900  0.23826500  1
  H  H4601  1  0.76055900  0.63770900  0.48826500  1
  H  H4602  1  0.76055900  0.63770900  0.73826500  1
  H  H4603  1  0.76055900  0.63770900  0.98826500  1
  H  H4604  1  0.76055900  0.88770900  0.23826500  1
  H  H4605  1  0.76055900  0.88770900  0.48826500  1
  H  H4606  1  0.76055900  0.88770900  0.73826500  1
  H  H4607  1  0.76055900  0.88770900  0.98826500  1
  N  N4608  1  0.10891100  0.16577350  0.00877400  1
  N  N4609  1  0.10891100  0.16577350  0.25877400  1
  N  N4610  1  0.10891100  0.16577350  0.50877400  1
  N  N4611  1  0.10891100  0.16577350  0.75877400  1
  N  N4612  1  0.10891100  0.41577350  0.00877400  1
  N  N4613  1  0.10891100  0.41577350  0.25877400  1
  N  N4614  1  0.10891100  0.41577350  0.50877400  1
  N  N4615  1  0.10891100  0.41577350  0.75877400  1
  N  N4616  1  0.10891100  0.66577350  0.00877400  1
  N  N4617  1  0.10891100  0.66577350  0.25877400  1
  N  N4618  1  0.10891100  0.66577350  0.50877400  1
  N  N4619  1  0.10891100  0.66577350  0.75877400  1
  N  N4620  1  0.10891100  0.91577350  0.00877400  1
  N  N4621  1  0.10891100  0.91577350  0.25877400  1
  N  N4622  1  0.10891100  0.91577350  0.50877400  1
  N  N4623  1  0.10891100  0.91577350  0.75877400  1
  N  N4624  1  0.35891100  0.16577350  0.00877400  1
  N  N4625  1  0.35891100  0.16577350  0.25877400  1
  N  N4626  1  0.35891100  0.16577350  0.50877400  1
  N  N4627  1  0.35891100  0.16577350  0.75877400  1
  N  N4628  1  0.35891100  0.41577350  0.00877400  1
  N  N4629  1  0.35891100  0.41577350  0.25877400  1
  N  N4630  1  0.35891100  0.41577350  0.50877400  1
  N  N4631  1  0.35891100  0.41577350  0.75877400  1
  N  N4632  1  0.35891100  0.66577350  0.00877400  1
  N  N4633  1  0.35891100  0.66577350  0.25877400  1
  N  N4634  1  0.35891100  0.66577350  0.50877400  1
  N  N4635  1  0.35891100  0.66577350  0.75877400  1
  N  N4636  1  0.35891100  0.91577350  0.00877400  1
  N  N4637  1  0.35891100  0.91577350  0.25877400  1
  N  N4638  1  0.35891100  0.91577350  0.50877400  1
  N  N4639  1  0.35891100  0.91577350  0.75877400  1
  N  N4640  1  0.60891100  0.16577350  0.00877400  1
  N  N4641  1  0.60891100  0.16577350  0.25877400  1
  N  N4642  1  0.60891100  0.16577350  0.50877400  1
  N  N4643  1  0.60891100  0.16577350  0.75877400  1
  N  N4644  1  0.60891100  0.41577350  0.00877400  1
  N  N4645  1  0.60891100  0.41577350  0.25877400  1
  N  N4646  1  0.60891100  0.41577350  0.50877400  1
  N  N4647  1  0.60891100  0.41577350  0.75877400  1
  N  N4648  1  0.60891100  0.66577350  0.00877400  1
  N  N4649  1  0.60891100  0.66577350  0.25877400  1
  N  N4650  1  0.60891100  0.66577350  0.50877400  1
  N  N4651  1  0.60891100  0.66577350  0.75877400  1
  N  N4652  1  0.60891100  0.91577350  0.00877400  1
  N  N4653  1  0.60891100  0.91577350  0.25877400  1
  N  N4654  1  0.60891100  0.91577350  0.50877400  1
  N  N4655  1  0.60891100  0.91577350  0.75877400  1
  N  N4656  1  0.85891100  0.16577350  0.00877400  1
  N  N4657  1  0.85891100  0.16577350  0.25877400  1
  N  N4658  1  0.85891100  0.16577350  0.50877400  1
  N  N4659  1  0.85891100  0.16577350  0.75877400  1
  N  N4660  1  0.85891100  0.41577350  0.00877400  1
  N  N4661  1  0.85891100  0.41577350  0.25877400  1
  N  N4662  1  0.85891100  0.41577350  0.50877400  1
  N  N4663  1  0.85891100  0.41577350  0.75877400  1
  N  N4664  1  0.85891100  0.66577350  0.00877400  1
  N  N4665  1  0.85891100  0.66577350  0.25877400  1
  N  N4666  1  0.85891100  0.66577350  0.50877400  1
  N  N4667  1  0.85891100  0.66577350  0.75877400  1
  N  N4668  1  0.85891100  0.91577350  0.00877400  1
  N  N4669  1  0.85891100  0.91577350  0.25877400  1
  N  N4670  1  0.85891100  0.91577350  0.50877400  1
  N  N4671  1  0.85891100  0.91577350  0.75877400  1
  N  N4672  1  0.14108900  0.08422650  0.24122600  1
  N  N4673  1  0.14108900  0.08422650  0.49122600  1
  N  N4674  1  0.14108900  0.08422650  0.74122600  1
  N  N4675  1  0.14108900  0.08422650  0.99122600  1
  N  N4676  1  0.14108900  0.33422650  0.24122600  1
  N  N4677  1  0.14108900  0.33422650  0.49122600  1
  N  N4678  1  0.14108900  0.33422650  0.74122600  1
  N  N4679  1  0.14108900  0.33422650  0.99122600  1
  N  N4680  1  0.14108900  0.58422650  0.24122600  1
  N  N4681  1  0.14108900  0.58422650  0.49122600  1
  N  N4682  1  0.14108900  0.58422650  0.74122600  1
  N  N4683  1  0.14108900  0.58422650  0.99122600  1
  N  N4684  1  0.14108900  0.83422650  0.24122600  1
  N  N4685  1  0.14108900  0.83422650  0.49122600  1
  N  N4686  1  0.14108900  0.83422650  0.74122600  1
  N  N4687  1  0.14108900  0.83422650  0.99122600  1
  N  N4688  1  0.39108900  0.08422650  0.24122600  1
  N  N4689  1  0.39108900  0.08422650  0.49122600  1
  N  N4690  1  0.39108900  0.08422650  0.74122600  1
  N  N4691  1  0.39108900  0.08422650  0.99122600  1
  N  N4692  1  0.39108900  0.33422650  0.24122600  1
  N  N4693  1  0.39108900  0.33422650  0.49122600  1
  N  N4694  1  0.39108900  0.33422650  0.74122600  1
  N  N4695  1  0.39108900  0.33422650  0.99122600  1
  N  N4696  1  0.39108900  0.58422650  0.24122600  1
  N  N4697  1  0.39108900  0.58422650  0.49122600  1
  N  N4698  1  0.39108900  0.58422650  0.74122600  1
  N  N4699  1  0.39108900  0.58422650  0.99122600  1
  N  N4700  1  0.39108900  0.83422650  0.24122600  1
  N  N4701  1  0.39108900  0.83422650  0.49122600  1
  N  N4702  1  0.39108900  0.83422650  0.74122600  1
  N  N4703  1  0.39108900  0.83422650  0.99122600  1
  N  N4704  1  0.64108900  0.08422650  0.24122600  1
  N  N4705  1  0.64108900  0.08422650  0.49122600  1
  N  N4706  1  0.64108900  0.08422650  0.74122600  1
  N  N4707  1  0.64108900  0.08422650  0.99122600  1
  N  N4708  1  0.64108900  0.33422650  0.24122600  1
  N  N4709  1  0.64108900  0.33422650  0.49122600  1
  N  N4710  1  0.64108900  0.33422650  0.74122600  1
  N  N4711  1  0.64108900  0.33422650  0.99122600  1
  N  N4712  1  0.64108900  0.58422650  0.24122600  1
  N  N4713  1  0.64108900  0.58422650  0.49122600  1
  N  N4714  1  0.64108900  0.58422650  0.74122600  1
  N  N4715  1  0.64108900  0.58422650  0.99122600  1
  N  N4716  1  0.64108900  0.83422650  0.24122600  1
  N  N4717  1  0.64108900  0.83422650  0.49122600  1
  N  N4718  1  0.64108900  0.83422650  0.74122600  1
  N  N4719  1  0.64108900  0.83422650  0.99122600  1
  N  N4720  1  0.89108900  0.08422650  0.24122600  1
  N  N4721  1  0.89108900  0.08422650  0.49122600  1
  N  N4722  1  0.89108900  0.08422650  0.74122600  1
  N  N4723  1  0.89108900  0.08422650  0.99122600  1
  N  N4724  1  0.89108900  0.33422650  0.24122600  1
  N  N4725  1  0.89108900  0.33422650  0.49122600  1
  N  N4726  1  0.89108900  0.33422650  0.74122600  1
  N  N4727  1  0.89108900  0.33422650  0.99122600  1
  N  N4728  1  0.89108900  0.58422650  0.24122600  1
  N  N4729  1  0.89108900  0.58422650  0.49122600  1
  N  N4730  1  0.89108900  0.58422650  0.74122600  1
  N  N4731  1  0.89108900  0.58422650  0.99122600  1
  N  N4732  1  0.89108900  0.83422650  0.24122600  1
  N  N4733  1  0.89108900  0.83422650  0.49122600  1
  N  N4734  1  0.89108900  0.83422650  0.74122600  1
  N  N4735  1  0.89108900  0.83422650  0.99122600  1
  N  N4736  1  0.17148075  0.24221350  0.05518875  1
  N  N4737  1  0.17148075  0.24221350  0.30518875  1
  N  N4738  1  0.17148075  0.24221350  0.55518875  1
  N  N4739  1  0.17148075  0.24221350  0.80518875  1
  N  N4740  1  0.17148075  0.49221350  0.05518875  1
  N  N4741  1  0.17148075  0.49221350  0.30518875  1
  N  N4742  1  0.17148075  0.49221350  0.55518875  1
  N  N4743  1  0.17148075  0.49221350  0.80518875  1
  N  N4744  1  0.17148075  0.74221350  0.05518875  1
  N  N4745  1  0.17148075  0.74221350  0.30518875  1
  N  N4746  1  0.17148075  0.74221350  0.55518875  1
  N  N4747  1  0.17148075  0.74221350  0.80518875  1
  N  N4748  1  0.17148075  0.99221350  0.05518875  1
  N  N4749  1  0.17148075  0.99221350  0.30518875  1
  N  N4750  1  0.17148075  0.99221350  0.55518875  1
  N  N4751  1  0.17148075  0.99221350  0.80518875  1
  N  N4752  1  0.42148075  0.24221350  0.05518875  1
  N  N4753  1  0.42148075  0.24221350  0.30518875  1
  N  N4754  1  0.42148075  0.24221350  0.55518875  1
  N  N4755  1  0.42148075  0.24221350  0.80518875  1
  N  N4756  1  0.42148075  0.49221350  0.05518875  1
  N  N4757  1  0.42148075  0.49221350  0.30518875  1
  N  N4758  1  0.42148075  0.49221350  0.55518875  1
  N  N4759  1  0.42148075  0.49221350  0.80518875  1
  N  N4760  1  0.42148075  0.74221350  0.05518875  1
  N  N4761  1  0.42148075  0.74221350  0.30518875  1
  N  N4762  1  0.42148075  0.74221350  0.55518875  1
  N  N4763  1  0.42148075  0.74221350  0.80518875  1
  N  N4764  1  0.42148075  0.99221350  0.05518875  1
  N  N4765  1  0.42148075  0.99221350  0.30518875  1
  N  N4766  1  0.42148075  0.99221350  0.55518875  1
  N  N4767  1  0.42148075  0.99221350  0.80518875  1
  N  N4768  1  0.67148075  0.24221350  0.05518875  1
  N  N4769  1  0.67148075  0.24221350  0.30518875  1
  N  N4770  1  0.67148075  0.24221350  0.55518875  1
  N  N4771  1  0.67148075  0.24221350  0.80518875  1
  N  N4772  1  0.67148075  0.49221350  0.05518875  1
  N  N4773  1  0.67148075  0.49221350  0.30518875  1
  N  N4774  1  0.67148075  0.49221350  0.55518875  1
  N  N4775  1  0.67148075  0.49221350  0.80518875  1
  N  N4776  1  0.67148075  0.74221350  0.05518875  1
  N  N4777  1  0.67148075  0.74221350  0.30518875  1
  N  N4778  1  0.67148075  0.74221350  0.55518875  1
  N  N4779  1  0.67148075  0.74221350  0.80518875  1
  N  N4780  1  0.67148075  0.99221350  0.05518875  1
  N  N4781  1  0.67148075  0.99221350  0.30518875  1
  N  N4782  1  0.67148075  0.99221350  0.55518875  1
  N  N4783  1  0.67148075  0.99221350  0.80518875  1
  N  N4784  1  0.92148075  0.24221350  0.05518875  1
  N  N4785  1  0.92148075  0.24221350  0.30518875  1
  N  N4786  1  0.92148075  0.24221350  0.55518875  1
  N  N4787  1  0.92148075  0.24221350  0.80518875  1
  N  N4788  1  0.92148075  0.49221350  0.05518875  1
  N  N4789  1  0.92148075  0.49221350  0.30518875  1
  N  N4790  1  0.92148075  0.49221350  0.55518875  1
  N  N4791  1  0.92148075  0.49221350  0.80518875  1
  N  N4792  1  0.92148075  0.74221350  0.05518875  1
  N  N4793  1  0.92148075  0.74221350  0.30518875  1
  N  N4794  1  0.92148075  0.74221350  0.55518875  1
  N  N4795  1  0.92148075  0.74221350  0.80518875  1
  N  N4796  1  0.92148075  0.99221350  0.05518875  1
  N  N4797  1  0.92148075  0.99221350  0.30518875  1
  N  N4798  1  0.92148075  0.99221350  0.55518875  1
  N  N4799  1  0.92148075  0.99221350  0.80518875  1
  N  N4800  1  0.07851925  0.00778650  0.19481125  1
  N  N4801  1  0.07851925  0.00778650  0.44481125  1
  N  N4802  1  0.07851925  0.00778650  0.69481125  1
  N  N4803  1  0.07851925  0.00778650  0.94481125  1
  N  N4804  1  0.07851925  0.25778650  0.19481125  1
  N  N4805  1  0.07851925  0.25778650  0.44481125  1
  N  N4806  1  0.07851925  0.25778650  0.69481125  1
  N  N4807  1  0.07851925  0.25778650  0.94481125  1
  N  N4808  1  0.07851925  0.50778650  0.19481125  1
  N  N4809  1  0.07851925  0.50778650  0.44481125  1
  N  N4810  1  0.07851925  0.50778650  0.69481125  1
  N  N4811  1  0.07851925  0.50778650  0.94481125  1
  N  N4812  1  0.07851925  0.75778650  0.19481125  1
  N  N4813  1  0.07851925  0.75778650  0.44481125  1
  N  N4814  1  0.07851925  0.75778650  0.69481125  1
  N  N4815  1  0.07851925  0.75778650  0.94481125  1
  N  N4816  1  0.32851925  0.00778650  0.19481125  1
  N  N4817  1  0.32851925  0.00778650  0.44481125  1
  N  N4818  1  0.32851925  0.00778650  0.69481125  1
  N  N4819  1  0.32851925  0.00778650  0.94481125  1
  N  N4820  1  0.32851925  0.25778650  0.19481125  1
  N  N4821  1  0.32851925  0.25778650  0.44481125  1
  N  N4822  1  0.32851925  0.25778650  0.69481125  1
  N  N4823  1  0.32851925  0.25778650  0.94481125  1
  N  N4824  1  0.32851925  0.50778650  0.19481125  1
  N  N4825  1  0.32851925  0.50778650  0.44481125  1
  N  N4826  1  0.32851925  0.50778650  0.69481125  1
  N  N4827  1  0.32851925  0.50778650  0.94481125  1
  N  N4828  1  0.32851925  0.75778650  0.19481125  1
  N  N4829  1  0.32851925  0.75778650  0.44481125  1
  N  N4830  1  0.32851925  0.75778650  0.69481125  1
  N  N4831  1  0.32851925  0.75778650  0.94481125  1
  N  N4832  1  0.57851925  0.00778650  0.19481125  1
  N  N4833  1  0.57851925  0.00778650  0.44481125  1
  N  N4834  1  0.57851925  0.00778650  0.69481125  1
  N  N4835  1  0.57851925  0.00778650  0.94481125  1
  N  N4836  1  0.57851925  0.25778650  0.19481125  1
  N  N4837  1  0.57851925  0.25778650  0.44481125  1
  N  N4838  1  0.57851925  0.25778650  0.69481125  1
  N  N4839  1  0.57851925  0.25778650  0.94481125  1
  N  N4840  1  0.57851925  0.50778650  0.19481125  1
  N  N4841  1  0.57851925  0.50778650  0.44481125  1
  N  N4842  1  0.57851925  0.50778650  0.69481125  1
  N  N4843  1  0.57851925  0.50778650  0.94481125  1
  N  N4844  1  0.57851925  0.75778650  0.19481125  1
  N  N4845  1  0.57851925  0.75778650  0.44481125  1
  N  N4846  1  0.57851925  0.75778650  0.69481125  1
  N  N4847  1  0.57851925  0.75778650  0.94481125  1
  N  N4848  1  0.82851925  0.00778650  0.19481125  1
  N  N4849  1  0.82851925  0.00778650  0.44481125  1
  N  N4850  1  0.82851925  0.00778650  0.69481125  1
  N  N4851  1  0.82851925  0.00778650  0.94481125  1
  N  N4852  1  0.82851925  0.25778650  0.19481125  1
  N  N4853  1  0.82851925  0.25778650  0.44481125  1
  N  N4854  1  0.82851925  0.25778650  0.69481125  1
  N  N4855  1  0.82851925  0.25778650  0.94481125  1
  N  N4856  1  0.82851925  0.50778650  0.19481125  1
  N  N4857  1  0.82851925  0.50778650  0.44481125  1
  N  N4858  1  0.82851925  0.50778650  0.69481125  1
  N  N4859  1  0.82851925  0.50778650  0.94481125  1
  N  N4860  1  0.82851925  0.75778650  0.19481125  1
  N  N4861  1  0.82851925  0.75778650  0.44481125  1
  N  N4862  1  0.82851925  0.75778650  0.69481125  1
  N  N4863  1  0.82851925  0.75778650  0.94481125  1
  N  N4864  1  0.20877675  0.19562300  0.02100500  1
  N  N4865  1  0.20877675  0.19562300  0.27100500  1
  N  N4866  1  0.20877675  0.19562300  0.52100500  1
  N  N4867  1  0.20877675  0.19562300  0.77100500  1
  N  N4868  1  0.20877675  0.44562300  0.02100500  1
  N  N4869  1  0.20877675  0.44562300  0.27100500  1
  N  N4870  1  0.20877675  0.44562300  0.52100500  1
  N  N4871  1  0.20877675  0.44562300  0.77100500  1
  N  N4872  1  0.20877675  0.69562300  0.02100500  1
  N  N4873  1  0.20877675  0.69562300  0.27100500  1
  N  N4874  1  0.20877675  0.69562300  0.52100500  1
  N  N4875  1  0.20877675  0.69562300  0.77100500  1
  N  N4876  1  0.20877675  0.94562300  0.02100500  1
  N  N4877  1  0.20877675  0.94562300  0.27100500  1
  N  N4878  1  0.20877675  0.94562300  0.52100500  1
  N  N4879  1  0.20877675  0.94562300  0.77100500  1
  N  N4880  1  0.45877675  0.19562300  0.02100500  1
  N  N4881  1  0.45877675  0.19562300  0.27100500  1
  N  N4882  1  0.45877675  0.19562300  0.52100500  1
  N  N4883  1  0.45877675  0.19562300  0.77100500  1
  N  N4884  1  0.45877675  0.44562300  0.02100500  1
  N  N4885  1  0.45877675  0.44562300  0.27100500  1
  N  N4886  1  0.45877675  0.44562300  0.52100500  1
  N  N4887  1  0.45877675  0.44562300  0.77100500  1
  N  N4888  1  0.45877675  0.69562300  0.02100500  1
  N  N4889  1  0.45877675  0.69562300  0.27100500  1
  N  N4890  1  0.45877675  0.69562300  0.52100500  1
  N  N4891  1  0.45877675  0.69562300  0.77100500  1
  N  N4892  1  0.45877675  0.94562300  0.02100500  1
  N  N4893  1  0.45877675  0.94562300  0.27100500  1
  N  N4894  1  0.45877675  0.94562300  0.52100500  1
  N  N4895  1  0.45877675  0.94562300  0.77100500  1
  N  N4896  1  0.70877675  0.19562300  0.02100500  1
  N  N4897  1  0.70877675  0.19562300  0.27100500  1
  N  N4898  1  0.70877675  0.19562300  0.52100500  1
  N  N4899  1  0.70877675  0.19562300  0.77100500  1
  N  N4900  1  0.70877675  0.44562300  0.02100500  1
  N  N4901  1  0.70877675  0.44562300  0.27100500  1
  N  N4902  1  0.70877675  0.44562300  0.52100500  1
  N  N4903  1  0.70877675  0.44562300  0.77100500  1
  N  N4904  1  0.70877675  0.69562300  0.02100500  1
  N  N4905  1  0.70877675  0.69562300  0.27100500  1
  N  N4906  1  0.70877675  0.69562300  0.52100500  1
  N  N4907  1  0.70877675  0.69562300  0.77100500  1
  N  N4908  1  0.70877675  0.94562300  0.02100500  1
  N  N4909  1  0.70877675  0.94562300  0.27100500  1
  N  N4910  1  0.70877675  0.94562300  0.52100500  1
  N  N4911  1  0.70877675  0.94562300  0.77100500  1
  N  N4912  1  0.95877675  0.19562300  0.02100500  1
  N  N4913  1  0.95877675  0.19562300  0.27100500  1
  N  N4914  1  0.95877675  0.19562300  0.52100500  1
  N  N4915  1  0.95877675  0.19562300  0.77100500  1
  N  N4916  1  0.95877675  0.44562300  0.02100500  1
  N  N4917  1  0.95877675  0.44562300  0.27100500  1
  N  N4918  1  0.95877675  0.44562300  0.52100500  1
  N  N4919  1  0.95877675  0.44562300  0.77100500  1
  N  N4920  1  0.95877675  0.69562300  0.02100500  1
  N  N4921  1  0.95877675  0.69562300  0.27100500  1
  N  N4922  1  0.95877675  0.69562300  0.52100500  1
  N  N4923  1  0.95877675  0.69562300  0.77100500  1
  N  N4924  1  0.95877675  0.94562300  0.02100500  1
  N  N4925  1  0.95877675  0.94562300  0.27100500  1
  N  N4926  1  0.95877675  0.94562300  0.52100500  1
  N  N4927  1  0.95877675  0.94562300  0.77100500  1
  N  N4928  1  0.04122325  0.05437700  0.22899500  1
  N  N4929  1  0.04122325  0.05437700  0.47899500  1
  N  N4930  1  0.04122325  0.05437700  0.72899500  1
  N  N4931  1  0.04122325  0.05437700  0.97899500  1
  N  N4932  1  0.04122325  0.30437700  0.22899500  1
  N  N4933  1  0.04122325  0.30437700  0.47899500  1
  N  N4934  1  0.04122325  0.30437700  0.72899500  1
  N  N4935  1  0.04122325  0.30437700  0.97899500  1
  N  N4936  1  0.04122325  0.55437700  0.22899500  1
  N  N4937  1  0.04122325  0.55437700  0.47899500  1
  N  N4938  1  0.04122325  0.55437700  0.72899500  1
  N  N4939  1  0.04122325  0.55437700  0.97899500  1
  N  N4940  1  0.04122325  0.80437700  0.22899500  1
  N  N4941  1  0.04122325  0.80437700  0.47899500  1
  N  N4942  1  0.04122325  0.80437700  0.72899500  1
  N  N4943  1  0.04122325  0.80437700  0.97899500  1
  N  N4944  1  0.29122325  0.05437700  0.22899500  1
  N  N4945  1  0.29122325  0.05437700  0.47899500  1
  N  N4946  1  0.29122325  0.05437700  0.72899500  1
  N  N4947  1  0.29122325  0.05437700  0.97899500  1
  N  N4948  1  0.29122325  0.30437700  0.22899500  1
  N  N4949  1  0.29122325  0.30437700  0.47899500  1
  N  N4950  1  0.29122325  0.30437700  0.72899500  1
  N  N4951  1  0.29122325  0.30437700  0.97899500  1
  N  N4952  1  0.29122325  0.55437700  0.22899500  1
  N  N4953  1  0.29122325  0.55437700  0.47899500  1
  N  N4954  1  0.29122325  0.55437700  0.72899500  1
  N  N4955  1  0.29122325  0.55437700  0.97899500  1
  N  N4956  1  0.29122325  0.80437700  0.22899500  1
  N  N4957  1  0.29122325  0.80437700  0.47899500  1
  N  N4958  1  0.29122325  0.80437700  0.72899500  1
  N  N4959  1  0.29122325  0.80437700  0.97899500  1
  N  N4960  1  0.54122325  0.05437700  0.22899500  1
  N  N4961  1  0.54122325  0.05437700  0.47899500  1
  N  N4962  1  0.54122325  0.05437700  0.72899500  1
  N  N4963  1  0.54122325  0.05437700  0.97899500  1
  N  N4964  1  0.54122325  0.30437700  0.22899500  1
  N  N4965  1  0.54122325  0.30437700  0.47899500  1
  N  N4966  1  0.54122325  0.30437700  0.72899500  1
  N  N4967  1  0.54122325  0.30437700  0.97899500  1
  N  N4968  1  0.54122325  0.55437700  0.22899500  1
  N  N4969  1  0.54122325  0.55437700  0.47899500  1
  N  N4970  1  0.54122325  0.55437700  0.72899500  1
  N  N4971  1  0.54122325  0.55437700  0.97899500  1
  N  N4972  1  0.54122325  0.80437700  0.22899500  1
  N  N4973  1  0.54122325  0.80437700  0.47899500  1
  N  N4974  1  0.54122325  0.80437700  0.72899500  1
  N  N4975  1  0.54122325  0.80437700  0.97899500  1
  N  N4976  1  0.79122325  0.05437700  0.22899500  1
  N  N4977  1  0.79122325  0.05437700  0.47899500  1
  N  N4978  1  0.79122325  0.05437700  0.72899500  1
  N  N4979  1  0.79122325  0.05437700  0.97899500  1
  N  N4980  1  0.79122325  0.30437700  0.22899500  1
  N  N4981  1  0.79122325  0.30437700  0.47899500  1
  N  N4982  1  0.79122325  0.30437700  0.72899500  1
  N  N4983  1  0.79122325  0.30437700  0.97899500  1
  N  N4984  1  0.79122325  0.55437700  0.22899500  1
  N  N4985  1  0.79122325  0.55437700  0.47899500  1
  N  N4986  1  0.79122325  0.55437700  0.72899500  1
  N  N4987  1  0.79122325  0.55437700  0.97899500  1
  N  N4988  1  0.79122325  0.80437700  0.22899500  1
  N  N4989  1  0.79122325  0.80437700  0.47899500  1
  N  N4990  1  0.79122325  0.80437700  0.72899500  1
  N  N4991  1  0.79122325  0.80437700  0.97899500  1
  N  N4992  1  0.17446000  0.24707850  0.24120150  1
  N  N4993  1  0.17446000  0.24707850  0.49120150  1
  N  N4994  1  0.17446000  0.24707850  0.74120150  1
  N  N4995  1  0.17446000  0.24707850  0.99120150  1
  N  N4996  1  0.17446000  0.49707850  0.24120150  1
  N  N4997  1  0.17446000  0.49707850  0.49120150  1
  N  N4998  1  0.17446000  0.49707850  0.74120150  1
  N  N4999  1  0.17446000  0.49707850  0.99120150  1
  N  N5000  1  0.17446000  0.74707850  0.24120150  1
  N  N5001  1  0.17446000  0.74707850  0.49120150  1
  N  N5002  1  0.17446000  0.74707850  0.74120150  1
  N  N5003  1  0.17446000  0.74707850  0.99120150  1
  N  N5004  1  0.17446000  0.99707850  0.24120150  1
  N  N5005  1  0.17446000  0.99707850  0.49120150  1
  N  N5006  1  0.17446000  0.99707850  0.74120150  1
  N  N5007  1  0.17446000  0.99707850  0.99120150  1
  N  N5008  1  0.42446000  0.24707850  0.24120150  1
  N  N5009  1  0.42446000  0.24707850  0.49120150  1
  N  N5010  1  0.42446000  0.24707850  0.74120150  1
  N  N5011  1  0.42446000  0.24707850  0.99120150  1
  N  N5012  1  0.42446000  0.49707850  0.24120150  1
  N  N5013  1  0.42446000  0.49707850  0.49120150  1
  N  N5014  1  0.42446000  0.49707850  0.74120150  1
  N  N5015  1  0.42446000  0.49707850  0.99120150  1
  N  N5016  1  0.42446000  0.74707850  0.24120150  1
  N  N5017  1  0.42446000  0.74707850  0.49120150  1
  N  N5018  1  0.42446000  0.74707850  0.74120150  1
  N  N5019  1  0.42446000  0.74707850  0.99120150  1
  N  N5020  1  0.42446000  0.99707850  0.24120150  1
  N  N5021  1  0.42446000  0.99707850  0.49120150  1
  N  N5022  1  0.42446000  0.99707850  0.74120150  1
  N  N5023  1  0.42446000  0.99707850  0.99120150  1
  N  N5024  1  0.67446000  0.24707850  0.24120150  1
  N  N5025  1  0.67446000  0.24707850  0.49120150  1
  N  N5026  1  0.67446000  0.24707850  0.74120150  1
  N  N5027  1  0.67446000  0.24707850  0.99120150  1
  N  N5028  1  0.67446000  0.49707850  0.24120150  1
  N  N5029  1  0.67446000  0.49707850  0.49120150  1
  N  N5030  1  0.67446000  0.49707850  0.74120150  1
  N  N5031  1  0.67446000  0.49707850  0.99120150  1
  N  N5032  1  0.67446000  0.74707850  0.24120150  1
  N  N5033  1  0.67446000  0.74707850  0.49120150  1
  N  N5034  1  0.67446000  0.74707850  0.74120150  1
  N  N5035  1  0.67446000  0.74707850  0.99120150  1
  N  N5036  1  0.67446000  0.99707850  0.24120150  1
  N  N5037  1  0.67446000  0.99707850  0.49120150  1
  N  N5038  1  0.67446000  0.99707850  0.74120150  1
  N  N5039  1  0.67446000  0.99707850  0.99120150  1
  N  N5040  1  0.92446000  0.24707850  0.24120150  1
  N  N5041  1  0.92446000  0.24707850  0.49120150  1
  N  N5042  1  0.92446000  0.24707850  0.74120150  1
  N  N5043  1  0.92446000  0.24707850  0.99120150  1
  N  N5044  1  0.92446000  0.49707850  0.24120150  1
  N  N5045  1  0.92446000  0.49707850  0.49120150  1
  N  N5046  1  0.92446000  0.49707850  0.74120150  1
  N  N5047  1  0.92446000  0.49707850  0.99120150  1
  N  N5048  1  0.92446000  0.74707850  0.24120150  1
  N  N5049  1  0.92446000  0.74707850  0.49120150  1
  N  N5050  1  0.92446000  0.74707850  0.74120150  1
  N  N5051  1  0.92446000  0.74707850  0.99120150  1
  N  N5052  1  0.92446000  0.99707850  0.24120150  1
  N  N5053  1  0.92446000  0.99707850  0.49120150  1
  N  N5054  1  0.92446000  0.99707850  0.74120150  1
  N  N5055  1  0.92446000  0.99707850  0.99120150  1
  N  N5056  1  0.07554000  0.00292150  0.00879850  1
  N  N5057  1  0.07554000  0.00292150  0.25879850  1
  N  N5058  1  0.07554000  0.00292150  0.50879850  1
  N  N5059  1  0.07554000  0.00292150  0.75879850  1
  N  N5060  1  0.07554000  0.25292150  0.00879850  1
  N  N5061  1  0.07554000  0.25292150  0.25879850  1
  N  N5062  1  0.07554000  0.25292150  0.50879850  1
  N  N5063  1  0.07554000  0.25292150  0.75879850  1
  N  N5064  1  0.07554000  0.50292150  0.00879850  1
  N  N5065  1  0.07554000  0.50292150  0.25879850  1
  N  N5066  1  0.07554000  0.50292150  0.50879850  1
  N  N5067  1  0.07554000  0.50292150  0.75879850  1
  N  N5068  1  0.07554000  0.75292150  0.00879850  1
  N  N5069  1  0.07554000  0.75292150  0.25879850  1
  N  N5070  1  0.07554000  0.75292150  0.50879850  1
  N  N5071  1  0.07554000  0.75292150  0.75879850  1
  N  N5072  1  0.32554000  0.00292150  0.00879850  1
  N  N5073  1  0.32554000  0.00292150  0.25879850  1
  N  N5074  1  0.32554000  0.00292150  0.50879850  1
  N  N5075  1  0.32554000  0.00292150  0.75879850  1
  N  N5076  1  0.32554000  0.25292150  0.00879850  1
  N  N5077  1  0.32554000  0.25292150  0.25879850  1
  N  N5078  1  0.32554000  0.25292150  0.50879850  1
  N  N5079  1  0.32554000  0.25292150  0.75879850  1
  N  N5080  1  0.32554000  0.50292150  0.00879850  1
  N  N5081  1  0.32554000  0.50292150  0.25879850  1
  N  N5082  1  0.32554000  0.50292150  0.50879850  1
  N  N5083  1  0.32554000  0.50292150  0.75879850  1
  N  N5084  1  0.32554000  0.75292150  0.00879850  1
  N  N5085  1  0.32554000  0.75292150  0.25879850  1
  N  N5086  1  0.32554000  0.75292150  0.50879850  1
  N  N5087  1  0.32554000  0.75292150  0.75879850  1
  N  N5088  1  0.57554000  0.00292150  0.00879850  1
  N  N5089  1  0.57554000  0.00292150  0.25879850  1
  N  N5090  1  0.57554000  0.00292150  0.50879850  1
  N  N5091  1  0.57554000  0.00292150  0.75879850  1
  N  N5092  1  0.57554000  0.25292150  0.00879850  1
  N  N5093  1  0.57554000  0.25292150  0.25879850  1
  N  N5094  1  0.57554000  0.25292150  0.50879850  1
  N  N5095  1  0.57554000  0.25292150  0.75879850  1
  N  N5096  1  0.57554000  0.50292150  0.00879850  1
  N  N5097  1  0.57554000  0.50292150  0.25879850  1
  N  N5098  1  0.57554000  0.50292150  0.50879850  1
  N  N5099  1  0.57554000  0.50292150  0.75879850  1
  N  N5100  1  0.57554000  0.75292150  0.00879850  1
  N  N5101  1  0.57554000  0.75292150  0.25879850  1
  N  N5102  1  0.57554000  0.75292150  0.50879850  1
  N  N5103  1  0.57554000  0.75292150  0.75879850  1
  N  N5104  1  0.82554000  0.00292150  0.00879850  1
  N  N5105  1  0.82554000  0.00292150  0.25879850  1
  N  N5106  1  0.82554000  0.00292150  0.50879850  1
  N  N5107  1  0.82554000  0.00292150  0.75879850  1
  N  N5108  1  0.82554000  0.25292150  0.00879850  1
  N  N5109  1  0.82554000  0.25292150  0.25879850  1
  N  N5110  1  0.82554000  0.25292150  0.50879850  1
  N  N5111  1  0.82554000  0.25292150  0.75879850  1
  N  N5112  1  0.82554000  0.50292150  0.00879850  1
  N  N5113  1  0.82554000  0.50292150  0.25879850  1
  N  N5114  1  0.82554000  0.50292150  0.50879850  1
  N  N5115  1  0.82554000  0.50292150  0.75879850  1
  N  N5116  1  0.82554000  0.75292150  0.00879850  1
  N  N5117  1  0.82554000  0.75292150  0.25879850  1
  N  N5118  1  0.82554000  0.75292150  0.50879850  1
  N  N5119  1  0.82554000  0.75292150  0.75879850  1
  N  N5120  1  0.05277325  0.19356475  0.06203350  1
  N  N5121  1  0.05277325  0.19356475  0.31203350  1
  N  N5122  1  0.05277325  0.19356475  0.56203350  1
  N  N5123  1  0.05277325  0.19356475  0.81203350  1
  N  N5124  1  0.05277325  0.44356475  0.06203350  1
  N  N5125  1  0.05277325  0.44356475  0.31203350  1
  N  N5126  1  0.05277325  0.44356475  0.56203350  1
  N  N5127  1  0.05277325  0.44356475  0.81203350  1
  N  N5128  1  0.05277325  0.69356475  0.06203350  1
  N  N5129  1  0.05277325  0.69356475  0.31203350  1
  N  N5130  1  0.05277325  0.69356475  0.56203350  1
  N  N5131  1  0.05277325  0.69356475  0.81203350  1
  N  N5132  1  0.05277325  0.94356475  0.06203350  1
  N  N5133  1  0.05277325  0.94356475  0.31203350  1
  N  N5134  1  0.05277325  0.94356475  0.56203350  1
  N  N5135  1  0.05277325  0.94356475  0.81203350  1
  N  N5136  1  0.30277325  0.19356475  0.06203350  1
  N  N5137  1  0.30277325  0.19356475  0.31203350  1
  N  N5138  1  0.30277325  0.19356475  0.56203350  1
  N  N5139  1  0.30277325  0.19356475  0.81203350  1
  N  N5140  1  0.30277325  0.44356475  0.06203350  1
  N  N5141  1  0.30277325  0.44356475  0.31203350  1
  N  N5142  1  0.30277325  0.44356475  0.56203350  1
  N  N5143  1  0.30277325  0.44356475  0.81203350  1
  N  N5144  1  0.30277325  0.69356475  0.06203350  1
  N  N5145  1  0.30277325  0.69356475  0.31203350  1
  N  N5146  1  0.30277325  0.69356475  0.56203350  1
  N  N5147  1  0.30277325  0.69356475  0.81203350  1
  N  N5148  1  0.30277325  0.94356475  0.06203350  1
  N  N5149  1  0.30277325  0.94356475  0.31203350  1
  N  N5150  1  0.30277325  0.94356475  0.56203350  1
  N  N5151  1  0.30277325  0.94356475  0.81203350  1
  N  N5152  1  0.55277325  0.19356475  0.06203350  1
  N  N5153  1  0.55277325  0.19356475  0.31203350  1
  N  N5154  1  0.55277325  0.19356475  0.56203350  1
  N  N5155  1  0.55277325  0.19356475  0.81203350  1
  N  N5156  1  0.55277325  0.44356475  0.06203350  1
  N  N5157  1  0.55277325  0.44356475  0.31203350  1
  N  N5158  1  0.55277325  0.44356475  0.56203350  1
  N  N5159  1  0.55277325  0.44356475  0.81203350  1
  N  N5160  1  0.55277325  0.69356475  0.06203350  1
  N  N5161  1  0.55277325  0.69356475  0.31203350  1
  N  N5162  1  0.55277325  0.69356475  0.56203350  1
  N  N5163  1  0.55277325  0.69356475  0.81203350  1
  N  N5164  1  0.55277325  0.94356475  0.06203350  1
  N  N5165  1  0.55277325  0.94356475  0.31203350  1
  N  N5166  1  0.55277325  0.94356475  0.56203350  1
  N  N5167  1  0.55277325  0.94356475  0.81203350  1
  N  N5168  1  0.80277325  0.19356475  0.06203350  1
  N  N5169  1  0.80277325  0.19356475  0.31203350  1
  N  N5170  1  0.80277325  0.19356475  0.56203350  1
  N  N5171  1  0.80277325  0.19356475  0.81203350  1
  N  N5172  1  0.80277325  0.44356475  0.06203350  1
  N  N5173  1  0.80277325  0.44356475  0.31203350  1
  N  N5174  1  0.80277325  0.44356475  0.56203350  1
  N  N5175  1  0.80277325  0.44356475  0.81203350  1
  N  N5176  1  0.80277325  0.69356475  0.06203350  1
  N  N5177  1  0.80277325  0.69356475  0.31203350  1
  N  N5178  1  0.80277325  0.69356475  0.56203350  1
  N  N5179  1  0.80277325  0.69356475  0.81203350  1
  N  N5180  1  0.80277325  0.94356475  0.06203350  1
  N  N5181  1  0.80277325  0.94356475  0.31203350  1
  N  N5182  1  0.80277325  0.94356475  0.56203350  1
  N  N5183  1  0.80277325  0.94356475  0.81203350  1
  N  N5184  1  0.19722675  0.05643525  0.18796650  1
  N  N5185  1  0.19722675  0.05643525  0.43796650  1
  N  N5186  1  0.19722675  0.05643525  0.68796650  1
  N  N5187  1  0.19722675  0.05643525  0.93796650  1
  N  N5188  1  0.19722675  0.30643525  0.18796650  1
  N  N5189  1  0.19722675  0.30643525  0.43796650  1
  N  N5190  1  0.19722675  0.30643525  0.68796650  1
  N  N5191  1  0.19722675  0.30643525  0.93796650  1
  N  N5192  1  0.19722675  0.55643525  0.18796650  1
  N  N5193  1  0.19722675  0.55643525  0.43796650  1
  N  N5194  1  0.19722675  0.55643525  0.68796650  1
  N  N5195  1  0.19722675  0.55643525  0.93796650  1
  N  N5196  1  0.19722675  0.80643525  0.18796650  1
  N  N5197  1  0.19722675  0.80643525  0.43796650  1
  N  N5198  1  0.19722675  0.80643525  0.68796650  1
  N  N5199  1  0.19722675  0.80643525  0.93796650  1
  N  N5200  1  0.44722675  0.05643525  0.18796650  1
  N  N5201  1  0.44722675  0.05643525  0.43796650  1
  N  N5202  1  0.44722675  0.05643525  0.68796650  1
  N  N5203  1  0.44722675  0.05643525  0.93796650  1
  N  N5204  1  0.44722675  0.30643525  0.18796650  1
  N  N5205  1  0.44722675  0.30643525  0.43796650  1
  N  N5206  1  0.44722675  0.30643525  0.68796650  1
  N  N5207  1  0.44722675  0.30643525  0.93796650  1
  N  N5208  1  0.44722675  0.55643525  0.18796650  1
  N  N5209  1  0.44722675  0.55643525  0.43796650  1
  N  N5210  1  0.44722675  0.55643525  0.68796650  1
  N  N5211  1  0.44722675  0.55643525  0.93796650  1
  N  N5212  1  0.44722675  0.80643525  0.18796650  1
  N  N5213  1  0.44722675  0.80643525  0.43796650  1
  N  N5214  1  0.44722675  0.80643525  0.68796650  1
  N  N5215  1  0.44722675  0.80643525  0.93796650  1
  N  N5216  1  0.69722675  0.05643525  0.18796650  1
  N  N5217  1  0.69722675  0.05643525  0.43796650  1
  N  N5218  1  0.69722675  0.05643525  0.68796650  1
  N  N5219  1  0.69722675  0.05643525  0.93796650  1
  N  N5220  1  0.69722675  0.30643525  0.18796650  1
  N  N5221  1  0.69722675  0.30643525  0.43796650  1
  N  N5222  1  0.69722675  0.30643525  0.68796650  1
  N  N5223  1  0.69722675  0.30643525  0.93796650  1
  N  N5224  1  0.69722675  0.55643525  0.18796650  1
  N  N5225  1  0.69722675  0.55643525  0.43796650  1
  N  N5226  1  0.69722675  0.55643525  0.68796650  1
  N  N5227  1  0.69722675  0.55643525  0.93796650  1
  N  N5228  1  0.69722675  0.80643525  0.18796650  1
  N  N5229  1  0.69722675  0.80643525  0.43796650  1
  N  N5230  1  0.69722675  0.80643525  0.68796650  1
  N  N5231  1  0.69722675  0.80643525  0.93796650  1
  N  N5232  1  0.94722675  0.05643525  0.18796650  1
  N  N5233  1  0.94722675  0.05643525  0.43796650  1
  N  N5234  1  0.94722675  0.05643525  0.68796650  1
  N  N5235  1  0.94722675  0.05643525  0.93796650  1
  N  N5236  1  0.94722675  0.30643525  0.18796650  1
  N  N5237  1  0.94722675  0.30643525  0.43796650  1
  N  N5238  1  0.94722675  0.30643525  0.68796650  1
  N  N5239  1  0.94722675  0.30643525  0.93796650  1
  N  N5240  1  0.94722675  0.55643525  0.18796650  1
  N  N5241  1  0.94722675  0.55643525  0.43796650  1
  N  N5242  1  0.94722675  0.55643525  0.68796650  1
  N  N5243  1  0.94722675  0.55643525  0.93796650  1
  N  N5244  1  0.94722675  0.80643525  0.18796650  1
  N  N5245  1  0.94722675  0.80643525  0.43796650  1
  N  N5246  1  0.94722675  0.80643525  0.68796650  1
  N  N5247  1  0.94722675  0.80643525  0.93796650  1
  N  N5248  1  0.24862000  0.11971375  0.09310425  1
  N  N5249  1  0.24862000  0.11971375  0.34310425  1
  N  N5250  1  0.24862000  0.11971375  0.59310425  1
  N  N5251  1  0.24862000  0.11971375  0.84310425  1
  N  N5252  1  0.24862000  0.36971375  0.09310425  1
  N  N5253  1  0.24862000  0.36971375  0.34310425  1
  N  N5254  1  0.24862000  0.36971375  0.59310425  1
  N  N5255  1  0.24862000  0.36971375  0.84310425  1
  N  N5256  1  0.24862000  0.61971375  0.09310425  1
  N  N5257  1  0.24862000  0.61971375  0.34310425  1
  N  N5258  1  0.24862000  0.61971375  0.59310425  1
  N  N5259  1  0.24862000  0.61971375  0.84310425  1
  N  N5260  1  0.24862000  0.86971375  0.09310425  1
  N  N5261  1  0.24862000  0.86971375  0.34310425  1
  N  N5262  1  0.24862000  0.86971375  0.59310425  1
  N  N5263  1  0.24862000  0.86971375  0.84310425  1
  N  N5264  1  0.49862000  0.11971375  0.09310425  1
  N  N5265  1  0.49862000  0.11971375  0.34310425  1
  N  N5266  1  0.49862000  0.11971375  0.59310425  1
  N  N5267  1  0.49862000  0.11971375  0.84310425  1
  N  N5268  1  0.49862000  0.36971375  0.09310425  1
  N  N5269  1  0.49862000  0.36971375  0.34310425  1
  N  N5270  1  0.49862000  0.36971375  0.59310425  1
  N  N5271  1  0.49862000  0.36971375  0.84310425  1
  N  N5272  1  0.49862000  0.61971375  0.09310425  1
  N  N5273  1  0.49862000  0.61971375  0.34310425  1
  N  N5274  1  0.49862000  0.61971375  0.59310425  1
  N  N5275  1  0.49862000  0.61971375  0.84310425  1
  N  N5276  1  0.49862000  0.86971375  0.09310425  1
  N  N5277  1  0.49862000  0.86971375  0.34310425  1
  N  N5278  1  0.49862000  0.86971375  0.59310425  1
  N  N5279  1  0.49862000  0.86971375  0.84310425  1
  N  N5280  1  0.74862000  0.11971375  0.09310425  1
  N  N5281  1  0.74862000  0.11971375  0.34310425  1
  N  N5282  1  0.74862000  0.11971375  0.59310425  1
  N  N5283  1  0.74862000  0.11971375  0.84310425  1
  N  N5284  1  0.74862000  0.36971375  0.09310425  1
  N  N5285  1  0.74862000  0.36971375  0.34310425  1
  N  N5286  1  0.74862000  0.36971375  0.59310425  1
  N  N5287  1  0.74862000  0.36971375  0.84310425  1
  N  N5288  1  0.74862000  0.61971375  0.09310425  1
  N  N5289  1  0.74862000  0.61971375  0.34310425  1
  N  N5290  1  0.74862000  0.61971375  0.59310425  1
  N  N5291  1  0.74862000  0.61971375  0.84310425  1
  N  N5292  1  0.74862000  0.86971375  0.09310425  1
  N  N5293  1  0.74862000  0.86971375  0.34310425  1
  N  N5294  1  0.74862000  0.86971375  0.59310425  1
  N  N5295  1  0.74862000  0.86971375  0.84310425  1
  N  N5296  1  0.99862000  0.11971375  0.09310425  1
  N  N5297  1  0.99862000  0.11971375  0.34310425  1
  N  N5298  1  0.99862000  0.11971375  0.59310425  1
  N  N5299  1  0.99862000  0.11971375  0.84310425  1
  N  N5300  1  0.99862000  0.36971375  0.09310425  1
  N  N5301  1  0.99862000  0.36971375  0.34310425  1
  N  N5302  1  0.99862000  0.36971375  0.59310425  1
  N  N5303  1  0.99862000  0.36971375  0.84310425  1
  N  N5304  1  0.99862000  0.61971375  0.09310425  1
  N  N5305  1  0.99862000  0.61971375  0.34310425  1
  N  N5306  1  0.99862000  0.61971375  0.59310425  1
  N  N5307  1  0.99862000  0.61971375  0.84310425  1
  N  N5308  1  0.99862000  0.86971375  0.09310425  1
  N  N5309  1  0.99862000  0.86971375  0.34310425  1
  N  N5310  1  0.99862000  0.86971375  0.59310425  1
  N  N5311  1  0.99862000  0.86971375  0.84310425  1
  N  N5312  1  0.00138000  0.13028625  0.15689575  1
  N  N5313  1  0.00138000  0.13028625  0.40689575  1
  N  N5314  1  0.00138000  0.13028625  0.65689575  1
  N  N5315  1  0.00138000  0.13028625  0.90689575  1
  N  N5316  1  0.00138000  0.38028625  0.15689575  1
  N  N5317  1  0.00138000  0.38028625  0.40689575  1
  N  N5318  1  0.00138000  0.38028625  0.65689575  1
  N  N5319  1  0.00138000  0.38028625  0.90689575  1
  N  N5320  1  0.00138000  0.63028625  0.15689575  1
  N  N5321  1  0.00138000  0.63028625  0.40689575  1
  N  N5322  1  0.00138000  0.63028625  0.65689575  1
  N  N5323  1  0.00138000  0.63028625  0.90689575  1
  N  N5324  1  0.00138000  0.88028625  0.15689575  1
  N  N5325  1  0.00138000  0.88028625  0.40689575  1
  N  N5326  1  0.00138000  0.88028625  0.65689575  1
  N  N5327  1  0.00138000  0.88028625  0.90689575  1
  N  N5328  1  0.25138000  0.13028625  0.15689575  1
  N  N5329  1  0.25138000  0.13028625  0.40689575  1
  N  N5330  1  0.25138000  0.13028625  0.65689575  1
  N  N5331  1  0.25138000  0.13028625  0.90689575  1
  N  N5332  1  0.25138000  0.38028625  0.15689575  1
  N  N5333  1  0.25138000  0.38028625  0.40689575  1
  N  N5334  1  0.25138000  0.38028625  0.65689575  1
  N  N5335  1  0.25138000  0.38028625  0.90689575  1
  N  N5336  1  0.25138000  0.63028625  0.15689575  1
  N  N5337  1  0.25138000  0.63028625  0.40689575  1
  N  N5338  1  0.25138000  0.63028625  0.65689575  1
  N  N5339  1  0.25138000  0.63028625  0.90689575  1
  N  N5340  1  0.25138000  0.88028625  0.15689575  1
  N  N5341  1  0.25138000  0.88028625  0.40689575  1
  N  N5342  1  0.25138000  0.88028625  0.65689575  1
  N  N5343  1  0.25138000  0.88028625  0.90689575  1
  N  N5344  1  0.50138000  0.13028625  0.15689575  1
  N  N5345  1  0.50138000  0.13028625  0.40689575  1
  N  N5346  1  0.50138000  0.13028625  0.65689575  1
  N  N5347  1  0.50138000  0.13028625  0.90689575  1
  N  N5348  1  0.50138000  0.38028625  0.15689575  1
  N  N5349  1  0.50138000  0.38028625  0.40689575  1
  N  N5350  1  0.50138000  0.38028625  0.65689575  1
  N  N5351  1  0.50138000  0.38028625  0.90689575  1
  N  N5352  1  0.50138000  0.63028625  0.15689575  1
  N  N5353  1  0.50138000  0.63028625  0.40689575  1
  N  N5354  1  0.50138000  0.63028625  0.65689575  1
  N  N5355  1  0.50138000  0.63028625  0.90689575  1
  N  N5356  1  0.50138000  0.88028625  0.15689575  1
  N  N5357  1  0.50138000  0.88028625  0.40689575  1
  N  N5358  1  0.50138000  0.88028625  0.65689575  1
  N  N5359  1  0.50138000  0.88028625  0.90689575  1
  N  N5360  1  0.75138000  0.13028625  0.15689575  1
  N  N5361  1  0.75138000  0.13028625  0.40689575  1
  N  N5362  1  0.75138000  0.13028625  0.65689575  1
  N  N5363  1  0.75138000  0.13028625  0.90689575  1
  N  N5364  1  0.75138000  0.38028625  0.15689575  1
  N  N5365  1  0.75138000  0.38028625  0.40689575  1
  N  N5366  1  0.75138000  0.38028625  0.65689575  1
  N  N5367  1  0.75138000  0.38028625  0.90689575  1
  N  N5368  1  0.75138000  0.63028625  0.15689575  1
  N  N5369  1  0.75138000  0.63028625  0.40689575  1
  N  N5370  1  0.75138000  0.63028625  0.65689575  1
  N  N5371  1  0.75138000  0.63028625  0.90689575  1
  N  N5372  1  0.75138000  0.88028625  0.15689575  1
  N  N5373  1  0.75138000  0.88028625  0.40689575  1
  N  N5374  1  0.75138000  0.88028625  0.65689575  1
  N  N5375  1  0.75138000  0.88028625  0.90689575  1
  N  N5376  1  0.23200250  0.19929575  0.09574975  1
  N  N5377  1  0.23200250  0.19929575  0.34574975  1
  N  N5378  1  0.23200250  0.19929575  0.59574975  1
  N  N5379  1  0.23200250  0.19929575  0.84574975  1
  N  N5380  1  0.23200250  0.44929575  0.09574975  1
  N  N5381  1  0.23200250  0.44929575  0.34574975  1
  N  N5382  1  0.23200250  0.44929575  0.59574975  1
  N  N5383  1  0.23200250  0.44929575  0.84574975  1
  N  N5384  1  0.23200250  0.69929575  0.09574975  1
  N  N5385  1  0.23200250  0.69929575  0.34574975  1
  N  N5386  1  0.23200250  0.69929575  0.59574975  1
  N  N5387  1  0.23200250  0.69929575  0.84574975  1
  N  N5388  1  0.23200250  0.94929575  0.09574975  1
  N  N5389  1  0.23200250  0.94929575  0.34574975  1
  N  N5390  1  0.23200250  0.94929575  0.59574975  1
  N  N5391  1  0.23200250  0.94929575  0.84574975  1
  N  N5392  1  0.48200250  0.19929575  0.09574975  1
  N  N5393  1  0.48200250  0.19929575  0.34574975  1
  N  N5394  1  0.48200250  0.19929575  0.59574975  1
  N  N5395  1  0.48200250  0.19929575  0.84574975  1
  N  N5396  1  0.48200250  0.44929575  0.09574975  1
  N  N5397  1  0.48200250  0.44929575  0.34574975  1
  N  N5398  1  0.48200250  0.44929575  0.59574975  1
  N  N5399  1  0.48200250  0.44929575  0.84574975  1
  N  N5400  1  0.48200250  0.69929575  0.09574975  1
  N  N5401  1  0.48200250  0.69929575  0.34574975  1
  N  N5402  1  0.48200250  0.69929575  0.59574975  1
  N  N5403  1  0.48200250  0.69929575  0.84574975  1
  N  N5404  1  0.48200250  0.94929575  0.09574975  1
  N  N5405  1  0.48200250  0.94929575  0.34574975  1
  N  N5406  1  0.48200250  0.94929575  0.59574975  1
  N  N5407  1  0.48200250  0.94929575  0.84574975  1
  N  N5408  1  0.73200250  0.19929575  0.09574975  1
  N  N5409  1  0.73200250  0.19929575  0.34574975  1
  N  N5410  1  0.73200250  0.19929575  0.59574975  1
  N  N5411  1  0.73200250  0.19929575  0.84574975  1
  N  N5412  1  0.73200250  0.44929575  0.09574975  1
  N  N5413  1  0.73200250  0.44929575  0.34574975  1
  N  N5414  1  0.73200250  0.44929575  0.59574975  1
  N  N5415  1  0.73200250  0.44929575  0.84574975  1
  N  N5416  1  0.73200250  0.69929575  0.09574975  1
  N  N5417  1  0.73200250  0.69929575  0.34574975  1
  N  N5418  1  0.73200250  0.69929575  0.59574975  1
  N  N5419  1  0.73200250  0.69929575  0.84574975  1
  N  N5420  1  0.73200250  0.94929575  0.09574975  1
  N  N5421  1  0.73200250  0.94929575  0.34574975  1
  N  N5422  1  0.73200250  0.94929575  0.59574975  1
  N  N5423  1  0.73200250  0.94929575  0.84574975  1
  N  N5424  1  0.98200250  0.19929575  0.09574975  1
  N  N5425  1  0.98200250  0.19929575  0.34574975  1
  N  N5426  1  0.98200250  0.19929575  0.59574975  1
  N  N5427  1  0.98200250  0.19929575  0.84574975  1
  N  N5428  1  0.98200250  0.44929575  0.09574975  1
  N  N5429  1  0.98200250  0.44929575  0.34574975  1
  N  N5430  1  0.98200250  0.44929575  0.59574975  1
  N  N5431  1  0.98200250  0.44929575  0.84574975  1
  N  N5432  1  0.98200250  0.69929575  0.09574975  1
  N  N5433  1  0.98200250  0.69929575  0.34574975  1
  N  N5434  1  0.98200250  0.69929575  0.59574975  1
  N  N5435  1  0.98200250  0.69929575  0.84574975  1
  N  N5436  1  0.98200250  0.94929575  0.09574975  1
  N  N5437  1  0.98200250  0.94929575  0.34574975  1
  N  N5438  1  0.98200250  0.94929575  0.59574975  1
  N  N5439  1  0.98200250  0.94929575  0.84574975  1
  N  N5440  1  0.01799750  0.05070425  0.15425025  1
  N  N5441  1  0.01799750  0.05070425  0.40425025  1
  N  N5442  1  0.01799750  0.05070425  0.65425025  1
  N  N5443  1  0.01799750  0.05070425  0.90425025  1
  N  N5444  1  0.01799750  0.30070425  0.15425025  1
  N  N5445  1  0.01799750  0.30070425  0.40425025  1
  N  N5446  1  0.01799750  0.30070425  0.65425025  1
  N  N5447  1  0.01799750  0.30070425  0.90425025  1
  N  N5448  1  0.01799750  0.55070425  0.15425025  1
  N  N5449  1  0.01799750  0.55070425  0.40425025  1
  N  N5450  1  0.01799750  0.55070425  0.65425025  1
  N  N5451  1  0.01799750  0.55070425  0.90425025  1
  N  N5452  1  0.01799750  0.80070425  0.15425025  1
  N  N5453  1  0.01799750  0.80070425  0.40425025  1
  N  N5454  1  0.01799750  0.80070425  0.65425025  1
  N  N5455  1  0.01799750  0.80070425  0.90425025  1
  N  N5456  1  0.26799750  0.05070425  0.15425025  1
  N  N5457  1  0.26799750  0.05070425  0.40425025  1
  N  N5458  1  0.26799750  0.05070425  0.65425025  1
  N  N5459  1  0.26799750  0.05070425  0.90425025  1
  N  N5460  1  0.26799750  0.30070425  0.15425025  1
  N  N5461  1  0.26799750  0.30070425  0.40425025  1
  N  N5462  1  0.26799750  0.30070425  0.65425025  1
  N  N5463  1  0.26799750  0.30070425  0.90425025  1
  N  N5464  1  0.26799750  0.55070425  0.15425025  1
  N  N5465  1  0.26799750  0.55070425  0.40425025  1
  N  N5466  1  0.26799750  0.55070425  0.65425025  1
  N  N5467  1  0.26799750  0.55070425  0.90425025  1
  N  N5468  1  0.26799750  0.80070425  0.15425025  1
  N  N5469  1  0.26799750  0.80070425  0.40425025  1
  N  N5470  1  0.26799750  0.80070425  0.65425025  1
  N  N5471  1  0.26799750  0.80070425  0.90425025  1
  N  N5472  1  0.51799750  0.05070425  0.15425025  1
  N  N5473  1  0.51799750  0.05070425  0.40425025  1
  N  N5474  1  0.51799750  0.05070425  0.65425025  1
  N  N5475  1  0.51799750  0.05070425  0.90425025  1
  N  N5476  1  0.51799750  0.30070425  0.15425025  1
  N  N5477  1  0.51799750  0.30070425  0.40425025  1
  N  N5478  1  0.51799750  0.30070425  0.65425025  1
  N  N5479  1  0.51799750  0.30070425  0.90425025  1
  N  N5480  1  0.51799750  0.55070425  0.15425025  1
  N  N5481  1  0.51799750  0.55070425  0.40425025  1
  N  N5482  1  0.51799750  0.55070425  0.65425025  1
  N  N5483  1  0.51799750  0.55070425  0.90425025  1
  N  N5484  1  0.51799750  0.80070425  0.15425025  1
  N  N5485  1  0.51799750  0.80070425  0.40425025  1
  N  N5486  1  0.51799750  0.80070425  0.65425025  1
  N  N5487  1  0.51799750  0.80070425  0.90425025  1
  N  N5488  1  0.76799750  0.05070425  0.15425025  1
  N  N5489  1  0.76799750  0.05070425  0.40425025  1
  N  N5490  1  0.76799750  0.05070425  0.65425025  1
  N  N5491  1  0.76799750  0.05070425  0.90425025  1
  N  N5492  1  0.76799750  0.30070425  0.15425025  1
  N  N5493  1  0.76799750  0.30070425  0.40425025  1
  N  N5494  1  0.76799750  0.30070425  0.65425025  1
  N  N5495  1  0.76799750  0.30070425  0.90425025  1
  N  N5496  1  0.76799750  0.55070425  0.15425025  1
  N  N5497  1  0.76799750  0.55070425  0.40425025  1
  N  N5498  1  0.76799750  0.55070425  0.65425025  1
  N  N5499  1  0.76799750  0.55070425  0.90425025  1
  N  N5500  1  0.76799750  0.80070425  0.15425025  1
  N  N5501  1  0.76799750  0.80070425  0.40425025  1
  N  N5502  1  0.76799750  0.80070425  0.65425025  1
  N  N5503  1  0.76799750  0.80070425  0.90425025  1
  N  N5504  1  0.06737400  0.21218400  0.12331875  1
  N  N5505  1  0.06737400  0.21218400  0.37331875  1
  N  N5506  1  0.06737400  0.21218400  0.62331875  1
  N  N5507  1  0.06737400  0.21218400  0.87331875  1
  N  N5508  1  0.06737400  0.46218400  0.12331875  1
  N  N5509  1  0.06737400  0.46218400  0.37331875  1
  N  N5510  1  0.06737400  0.46218400  0.62331875  1
  N  N5511  1  0.06737400  0.46218400  0.87331875  1
  N  N5512  1  0.06737400  0.71218400  0.12331875  1
  N  N5513  1  0.06737400  0.71218400  0.37331875  1
  N  N5514  1  0.06737400  0.71218400  0.62331875  1
  N  N5515  1  0.06737400  0.71218400  0.87331875  1
  N  N5516  1  0.06737400  0.96218400  0.12331875  1
  N  N5517  1  0.06737400  0.96218400  0.37331875  1
  N  N5518  1  0.06737400  0.96218400  0.62331875  1
  N  N5519  1  0.06737400  0.96218400  0.87331875  1
  N  N5520  1  0.31737400  0.21218400  0.12331875  1
  N  N5521  1  0.31737400  0.21218400  0.37331875  1
  N  N5522  1  0.31737400  0.21218400  0.62331875  1
  N  N5523  1  0.31737400  0.21218400  0.87331875  1
  N  N5524  1  0.31737400  0.46218400  0.12331875  1
  N  N5525  1  0.31737400  0.46218400  0.37331875  1
  N  N5526  1  0.31737400  0.46218400  0.62331875  1
  N  N5527  1  0.31737400  0.46218400  0.87331875  1
  N  N5528  1  0.31737400  0.71218400  0.12331875  1
  N  N5529  1  0.31737400  0.71218400  0.37331875  1
  N  N5530  1  0.31737400  0.71218400  0.62331875  1
  N  N5531  1  0.31737400  0.71218400  0.87331875  1
  N  N5532  1  0.31737400  0.96218400  0.12331875  1
  N  N5533  1  0.31737400  0.96218400  0.37331875  1
  N  N5534  1  0.31737400  0.96218400  0.62331875  1
  N  N5535  1  0.31737400  0.96218400  0.87331875  1
  N  N5536  1  0.56737400  0.21218400  0.12331875  1
  N  N5537  1  0.56737400  0.21218400  0.37331875  1
  N  N5538  1  0.56737400  0.21218400  0.62331875  1
  N  N5539  1  0.56737400  0.21218400  0.87331875  1
  N  N5540  1  0.56737400  0.46218400  0.12331875  1
  N  N5541  1  0.56737400  0.46218400  0.37331875  1
  N  N5542  1  0.56737400  0.46218400  0.62331875  1
  N  N5543  1  0.56737400  0.46218400  0.87331875  1
  N  N5544  1  0.56737400  0.71218400  0.12331875  1
  N  N5545  1  0.56737400  0.71218400  0.37331875  1
  N  N5546  1  0.56737400  0.71218400  0.62331875  1
  N  N5547  1  0.56737400  0.71218400  0.87331875  1
  N  N5548  1  0.56737400  0.96218400  0.12331875  1
  N  N5549  1  0.56737400  0.96218400  0.37331875  1
  N  N5550  1  0.56737400  0.96218400  0.62331875  1
  N  N5551  1  0.56737400  0.96218400  0.87331875  1
  N  N5552  1  0.81737400  0.21218400  0.12331875  1
  N  N5553  1  0.81737400  0.21218400  0.37331875  1
  N  N5554  1  0.81737400  0.21218400  0.62331875  1
  N  N5555  1  0.81737400  0.21218400  0.87331875  1
  N  N5556  1  0.81737400  0.46218400  0.12331875  1
  N  N5557  1  0.81737400  0.46218400  0.37331875  1
  N  N5558  1  0.81737400  0.46218400  0.62331875  1
  N  N5559  1  0.81737400  0.46218400  0.87331875  1
  N  N5560  1  0.81737400  0.71218400  0.12331875  1
  N  N5561  1  0.81737400  0.71218400  0.37331875  1
  N  N5562  1  0.81737400  0.71218400  0.62331875  1
  N  N5563  1  0.81737400  0.71218400  0.87331875  1
  N  N5564  1  0.81737400  0.96218400  0.12331875  1
  N  N5565  1  0.81737400  0.96218400  0.37331875  1
  N  N5566  1  0.81737400  0.96218400  0.62331875  1
  N  N5567  1  0.81737400  0.96218400  0.87331875  1
  N  N5568  1  0.18262600  0.03781600  0.12668125  1
  N  N5569  1  0.18262600  0.03781600  0.37668125  1
  N  N5570  1  0.18262600  0.03781600  0.62668125  1
  N  N5571  1  0.18262600  0.03781600  0.87668125  1
  N  N5572  1  0.18262600  0.28781600  0.12668125  1
  N  N5573  1  0.18262600  0.28781600  0.37668125  1
  N  N5574  1  0.18262600  0.28781600  0.62668125  1
  N  N5575  1  0.18262600  0.28781600  0.87668125  1
  N  N5576  1  0.18262600  0.53781600  0.12668125  1
  N  N5577  1  0.18262600  0.53781600  0.37668125  1
  N  N5578  1  0.18262600  0.53781600  0.62668125  1
  N  N5579  1  0.18262600  0.53781600  0.87668125  1
  N  N5580  1  0.18262600  0.78781600  0.12668125  1
  N  N5581  1  0.18262600  0.78781600  0.37668125  1
  N  N5582  1  0.18262600  0.78781600  0.62668125  1
  N  N5583  1  0.18262600  0.78781600  0.87668125  1
  N  N5584  1  0.43262600  0.03781600  0.12668125  1
  N  N5585  1  0.43262600  0.03781600  0.37668125  1
  N  N5586  1  0.43262600  0.03781600  0.62668125  1
  N  N5587  1  0.43262600  0.03781600  0.87668125  1
  N  N5588  1  0.43262600  0.28781600  0.12668125  1
  N  N5589  1  0.43262600  0.28781600  0.37668125  1
  N  N5590  1  0.43262600  0.28781600  0.62668125  1
  N  N5591  1  0.43262600  0.28781600  0.87668125  1
  N  N5592  1  0.43262600  0.53781600  0.12668125  1
  N  N5593  1  0.43262600  0.53781600  0.37668125  1
  N  N5594  1  0.43262600  0.53781600  0.62668125  1
  N  N5595  1  0.43262600  0.53781600  0.87668125  1
  N  N5596  1  0.43262600  0.78781600  0.12668125  1
  N  N5597  1  0.43262600  0.78781600  0.37668125  1
  N  N5598  1  0.43262600  0.78781600  0.62668125  1
  N  N5599  1  0.43262600  0.78781600  0.87668125  1
  N  N5600  1  0.68262600  0.03781600  0.12668125  1
  N  N5601  1  0.68262600  0.03781600  0.37668125  1
  N  N5602  1  0.68262600  0.03781600  0.62668125  1
  N  N5603  1  0.68262600  0.03781600  0.87668125  1
  N  N5604  1  0.68262600  0.28781600  0.12668125  1
  N  N5605  1  0.68262600  0.28781600  0.37668125  1
  N  N5606  1  0.68262600  0.28781600  0.62668125  1
  N  N5607  1  0.68262600  0.28781600  0.87668125  1
  N  N5608  1  0.68262600  0.53781600  0.12668125  1
  N  N5609  1  0.68262600  0.53781600  0.37668125  1
  N  N5610  1  0.68262600  0.53781600  0.62668125  1
  N  N5611  1  0.68262600  0.53781600  0.87668125  1
  N  N5612  1  0.68262600  0.78781600  0.12668125  1
  N  N5613  1  0.68262600  0.78781600  0.37668125  1
  N  N5614  1  0.68262600  0.78781600  0.62668125  1
  N  N5615  1  0.68262600  0.78781600  0.87668125  1
  N  N5616  1  0.93262600  0.03781600  0.12668125  1
  N  N5617  1  0.93262600  0.03781600  0.37668125  1
  N  N5618  1  0.93262600  0.03781600  0.62668125  1
  N  N5619  1  0.93262600  0.03781600  0.87668125  1
  N  N5620  1  0.93262600  0.28781600  0.12668125  1
  N  N5621  1  0.93262600  0.28781600  0.37668125  1
  N  N5622  1  0.93262600  0.28781600  0.62668125  1
  N  N5623  1  0.93262600  0.28781600  0.87668125  1
  N  N5624  1  0.93262600  0.53781600  0.12668125  1
  N  N5625  1  0.93262600  0.53781600  0.37668125  1
  N  N5626  1  0.93262600  0.53781600  0.62668125  1
  N  N5627  1  0.93262600  0.53781600  0.87668125  1
  N  N5628  1  0.93262600  0.78781600  0.12668125  1
  N  N5629  1  0.93262600  0.78781600  0.37668125  1
  N  N5630  1  0.93262600  0.78781600  0.62668125  1
  N  N5631  1  0.93262600  0.78781600  0.87668125  1
  N  N5632  1  0.22488900  0.09094525  0.02194375  1
  N  N5633  1  0.22488900  0.09094525  0.27194375  1
  N  N5634  1  0.22488900  0.09094525  0.52194375  1
  N  N5635  1  0.22488900  0.09094525  0.77194375  1
  N  N5636  1  0.22488900  0.34094525  0.02194375  1
  N  N5637  1  0.22488900  0.34094525  0.27194375  1
  N  N5638  1  0.22488900  0.34094525  0.52194375  1
  N  N5639  1  0.22488900  0.34094525  0.77194375  1
  N  N5640  1  0.22488900  0.59094525  0.02194375  1
  N  N5641  1  0.22488900  0.59094525  0.27194375  1
  N  N5642  1  0.22488900  0.59094525  0.52194375  1
  N  N5643  1  0.22488900  0.59094525  0.77194375  1
  N  N5644  1  0.22488900  0.84094525  0.02194375  1
  N  N5645  1  0.22488900  0.84094525  0.27194375  1
  N  N5646  1  0.22488900  0.84094525  0.52194375  1
  N  N5647  1  0.22488900  0.84094525  0.77194375  1
  N  N5648  1  0.47488900  0.09094525  0.02194375  1
  N  N5649  1  0.47488900  0.09094525  0.27194375  1
  N  N5650  1  0.47488900  0.09094525  0.52194375  1
  N  N5651  1  0.47488900  0.09094525  0.77194375  1
  N  N5652  1  0.47488900  0.34094525  0.02194375  1
  N  N5653  1  0.47488900  0.34094525  0.27194375  1
  N  N5654  1  0.47488900  0.34094525  0.52194375  1
  N  N5655  1  0.47488900  0.34094525  0.77194375  1
  N  N5656  1  0.47488900  0.59094525  0.02194375  1
  N  N5657  1  0.47488900  0.59094525  0.27194375  1
  N  N5658  1  0.47488900  0.59094525  0.52194375  1
  N  N5659  1  0.47488900  0.59094525  0.77194375  1
  N  N5660  1  0.47488900  0.84094525  0.02194375  1
  N  N5661  1  0.47488900  0.84094525  0.27194375  1
  N  N5662  1  0.47488900  0.84094525  0.52194375  1
  N  N5663  1  0.47488900  0.84094525  0.77194375  1
  N  N5664  1  0.72488900  0.09094525  0.02194375  1
  N  N5665  1  0.72488900  0.09094525  0.27194375  1
  N  N5666  1  0.72488900  0.09094525  0.52194375  1
  N  N5667  1  0.72488900  0.09094525  0.77194375  1
  N  N5668  1  0.72488900  0.34094525  0.02194375  1
  N  N5669  1  0.72488900  0.34094525  0.27194375  1
  N  N5670  1  0.72488900  0.34094525  0.52194375  1
  N  N5671  1  0.72488900  0.34094525  0.77194375  1
  N  N5672  1  0.72488900  0.59094525  0.02194375  1
  N  N5673  1  0.72488900  0.59094525  0.27194375  1
  N  N5674  1  0.72488900  0.59094525  0.52194375  1
  N  N5675  1  0.72488900  0.59094525  0.77194375  1
  N  N5676  1  0.72488900  0.84094525  0.02194375  1
  N  N5677  1  0.72488900  0.84094525  0.27194375  1
  N  N5678  1  0.72488900  0.84094525  0.52194375  1
  N  N5679  1  0.72488900  0.84094525  0.77194375  1
  N  N5680  1  0.97488900  0.09094525  0.02194375  1
  N  N5681  1  0.97488900  0.09094525  0.27194375  1
  N  N5682  1  0.97488900  0.09094525  0.52194375  1
  N  N5683  1  0.97488900  0.09094525  0.77194375  1
  N  N5684  1  0.97488900  0.34094525  0.02194375  1
  N  N5685  1  0.97488900  0.34094525  0.27194375  1
  N  N5686  1  0.97488900  0.34094525  0.52194375  1
  N  N5687  1  0.97488900  0.34094525  0.77194375  1
  N  N5688  1  0.97488900  0.59094525  0.02194375  1
  N  N5689  1  0.97488900  0.59094525  0.27194375  1
  N  N5690  1  0.97488900  0.59094525  0.52194375  1
  N  N5691  1  0.97488900  0.59094525  0.77194375  1
  N  N5692  1  0.97488900  0.84094525  0.02194375  1
  N  N5693  1  0.97488900  0.84094525  0.27194375  1
  N  N5694  1  0.97488900  0.84094525  0.52194375  1
  N  N5695  1  0.97488900  0.84094525  0.77194375  1
  N  N5696  1  0.02511100  0.15905475  0.22805625  1
  N  N5697  1  0.02511100  0.15905475  0.47805625  1
  N  N5698  1  0.02511100  0.15905475  0.72805625  1
  N  N5699  1  0.02511100  0.15905475  0.97805625  1
  N  N5700  1  0.02511100  0.40905475  0.22805625  1
  N  N5701  1  0.02511100  0.40905475  0.47805625  1
  N  N5702  1  0.02511100  0.40905475  0.72805625  1
  N  N5703  1  0.02511100  0.40905475  0.97805625  1
  N  N5704  1  0.02511100  0.65905475  0.22805625  1
  N  N5705  1  0.02511100  0.65905475  0.47805625  1
  N  N5706  1  0.02511100  0.65905475  0.72805625  1
  N  N5707  1  0.02511100  0.65905475  0.97805625  1
  N  N5708  1  0.02511100  0.90905475  0.22805625  1
  N  N5709  1  0.02511100  0.90905475  0.47805625  1
  N  N5710  1  0.02511100  0.90905475  0.72805625  1
  N  N5711  1  0.02511100  0.90905475  0.97805625  1
  N  N5712  1  0.27511100  0.15905475  0.22805625  1
  N  N5713  1  0.27511100  0.15905475  0.47805625  1
  N  N5714  1  0.27511100  0.15905475  0.72805625  1
  N  N5715  1  0.27511100  0.15905475  0.97805625  1
  N  N5716  1  0.27511100  0.40905475  0.22805625  1
  N  N5717  1  0.27511100  0.40905475  0.47805625  1
  N  N5718  1  0.27511100  0.40905475  0.72805625  1
  N  N5719  1  0.27511100  0.40905475  0.97805625  1
  N  N5720  1  0.27511100  0.65905475  0.22805625  1
  N  N5721  1  0.27511100  0.65905475  0.47805625  1
  N  N5722  1  0.27511100  0.65905475  0.72805625  1
  N  N5723  1  0.27511100  0.65905475  0.97805625  1
  N  N5724  1  0.27511100  0.90905475  0.22805625  1
  N  N5725  1  0.27511100  0.90905475  0.47805625  1
  N  N5726  1  0.27511100  0.90905475  0.72805625  1
  N  N5727  1  0.27511100  0.90905475  0.97805625  1
  N  N5728  1  0.52511100  0.15905475  0.22805625  1
  N  N5729  1  0.52511100  0.15905475  0.47805625  1
  N  N5730  1  0.52511100  0.15905475  0.72805625  1
  N  N5731  1  0.52511100  0.15905475  0.97805625  1
  N  N5732  1  0.52511100  0.40905475  0.22805625  1
  N  N5733  1  0.52511100  0.40905475  0.47805625  1
  N  N5734  1  0.52511100  0.40905475  0.72805625  1
  N  N5735  1  0.52511100  0.40905475  0.97805625  1
  N  N5736  1  0.52511100  0.65905475  0.22805625  1
  N  N5737  1  0.52511100  0.65905475  0.47805625  1
  N  N5738  1  0.52511100  0.65905475  0.72805625  1
  N  N5739  1  0.52511100  0.65905475  0.97805625  1
  N  N5740  1  0.52511100  0.90905475  0.22805625  1
  N  N5741  1  0.52511100  0.90905475  0.47805625  1
  N  N5742  1  0.52511100  0.90905475  0.72805625  1
  N  N5743  1  0.52511100  0.90905475  0.97805625  1
  N  N5744  1  0.77511100  0.15905475  0.22805625  1
  N  N5745  1  0.77511100  0.15905475  0.47805625  1
  N  N5746  1  0.77511100  0.15905475  0.72805625  1
  N  N5747  1  0.77511100  0.15905475  0.97805625  1
  N  N5748  1  0.77511100  0.40905475  0.22805625  1
  N  N5749  1  0.77511100  0.40905475  0.47805625  1
  N  N5750  1  0.77511100  0.40905475  0.72805625  1
  N  N5751  1  0.77511100  0.40905475  0.97805625  1
  N  N5752  1  0.77511100  0.65905475  0.22805625  1
  N  N5753  1  0.77511100  0.65905475  0.47805625  1
  N  N5754  1  0.77511100  0.65905475  0.72805625  1
  N  N5755  1  0.77511100  0.65905475  0.97805625  1
  N  N5756  1  0.77511100  0.90905475  0.22805625  1
  N  N5757  1  0.77511100  0.90905475  0.47805625  1
  N  N5758  1  0.77511100  0.90905475  0.72805625  1
  N  N5759  1  0.77511100  0.90905475  0.97805625  1
