# generated using pymatgen
data_Li2V3SbO8
_symmetry_space_group_name_H-M   'P 1'
_cell_length_a   30.19526258
_cell_length_b   53.56502950
_cell_length_c   30.19494812
_cell_angle_alpha   73.66477487
_cell_angle_beta   60.02281139
_cell_angle_gamma   73.66541874
_symmetry_Int_Tables_number   1
_chemical_formula_structural   Li2V3SbO8
_chemical_formula_sum   'Li500 V750 Sb250 O2000'
_cell_volume   40010.73106140
_cell_formula_units_Z   250
loop_
 _symmetry_equiv_pos_site_id
 _symmetry_equiv_pos_as_xyz
  1  'x, y, z'
loop_
 _atom_site_type_symbol
 _atom_site_label
 _atom_site_symmetry_multiplicity
 _atom_site_fract_x
 _atom_site_fract_y
 _atom_site_fract_z
 _atom_site_occupancy
  Li  Li0  1  0.08691860  0.13925360  0.08691840  1
  Li  Li1  1  0.08691860  0.13925360  0.28691840  1
  Li  Li2  1  0.08691860  0.13925360  0.48691840  1
  Li  Li3  1  0.08691860  0.13925360  0.68691840  1
  Li  Li4  1  0.08691860  0.13925360  0.88691840  1
  Li  Li5  1  0.08691860  0.33925360  0.08691840  1
  Li  Li6  1  0.08691860  0.33925360  0.28691840  1
  Li  Li7  1  0.08691860  0.33925360  0.48691840  1
  Li  Li8  1  0.08691860  0.33925360  0.68691840  1
  Li  Li9  1  0.08691860  0.33925360  0.88691840  1
  Li  Li10  1  0.08691860  0.53925360  0.08691840  1
  Li  Li11  1  0.08691860  0.53925360  0.28691840  1
  Li  Li12  1  0.08691860  0.53925360  0.48691840  1
  Li  Li13  1  0.08691860  0.53925360  0.68691840  1
  Li  Li14  1  0.08691860  0.53925360  0.88691840  1
  Li  Li15  1  0.08691860  0.73925360  0.08691840  1
  Li  Li16  1  0.08691860  0.73925360  0.28691840  1
  Li  Li17  1  0.08691860  0.73925360  0.48691840  1
  Li  Li18  1  0.08691860  0.73925360  0.68691840  1
  Li  Li19  1  0.08691860  0.73925360  0.88691840  1
  Li  Li20  1  0.08691860  0.93925360  0.08691840  1
  Li  Li21  1  0.08691860  0.93925360  0.28691840  1
  Li  Li22  1  0.08691860  0.93925360  0.48691840  1
  Li  Li23  1  0.08691860  0.93925360  0.68691840  1
  Li  Li24  1  0.08691860  0.93925360  0.88691840  1
  Li  Li25  1  0.28691860  0.13925360  0.08691840  1
  Li  Li26  1  0.28691860  0.13925360  0.28691840  1
  Li  Li27  1  0.28691860  0.13925360  0.48691840  1
  Li  Li28  1  0.28691860  0.13925360  0.68691840  1
  Li  Li29  1  0.28691860  0.13925360  0.88691840  1
  Li  Li30  1  0.28691860  0.33925360  0.08691840  1
  Li  Li31  1  0.28691860  0.33925360  0.28691840  1
  Li  Li32  1  0.28691860  0.33925360  0.48691840  1
  Li  Li33  1  0.28691860  0.33925360  0.68691840  1
  Li  Li34  1  0.28691860  0.33925360  0.88691840  1
  Li  Li35  1  0.28691860  0.53925360  0.08691840  1
  Li  Li36  1  0.28691860  0.53925360  0.28691840  1
  Li  Li37  1  0.28691860  0.53925360  0.48691840  1
  Li  Li38  1  0.28691860  0.53925360  0.68691840  1
  Li  Li39  1  0.28691860  0.53925360  0.88691840  1
  Li  Li40  1  0.28691860  0.73925360  0.08691840  1
  Li  Li41  1  0.28691860  0.73925360  0.28691840  1
  Li  Li42  1  0.28691860  0.73925360  0.48691840  1
  Li  Li43  1  0.28691860  0.73925360  0.68691840  1
  Li  Li44  1  0.28691860  0.73925360  0.88691840  1
  Li  Li45  1  0.28691860  0.93925360  0.08691840  1
  Li  Li46  1  0.28691860  0.93925360  0.28691840  1
  Li  Li47  1  0.28691860  0.93925360  0.48691840  1
  Li  Li48  1  0.28691860  0.93925360  0.68691840  1
  Li  Li49  1  0.28691860  0.93925360  0.88691840  1
  Li  Li50  1  0.48691860  0.13925360  0.08691840  1
  Li  Li51  1  0.48691860  0.13925360  0.28691840  1
  Li  Li52  1  0.48691860  0.13925360  0.48691840  1
  Li  Li53  1  0.48691860  0.13925360  0.68691840  1
  Li  Li54  1  0.48691860  0.13925360  0.88691840  1
  Li  Li55  1  0.48691860  0.33925360  0.08691840  1
  Li  Li56  1  0.48691860  0.33925360  0.28691840  1
  Li  Li57  1  0.48691860  0.33925360  0.48691840  1
  Li  Li58  1  0.48691860  0.33925360  0.68691840  1
  Li  Li59  1  0.48691860  0.33925360  0.88691840  1
  Li  Li60  1  0.48691860  0.53925360  0.08691840  1
  Li  Li61  1  0.48691860  0.53925360  0.28691840  1
  Li  Li62  1  0.48691860  0.53925360  0.48691840  1
  Li  Li63  1  0.48691860  0.53925360  0.68691840  1
  Li  Li64  1  0.48691860  0.53925360  0.88691840  1
  Li  Li65  1  0.48691860  0.73925360  0.08691840  1
  Li  Li66  1  0.48691860  0.73925360  0.28691840  1
  Li  Li67  1  0.48691860  0.73925360  0.48691840  1
  Li  Li68  1  0.48691860  0.73925360  0.68691840  1
  Li  Li69  1  0.48691860  0.73925360  0.88691840  1
  Li  Li70  1  0.48691860  0.93925360  0.08691840  1
  Li  Li71  1  0.48691860  0.93925360  0.28691840  1
  Li  Li72  1  0.48691860  0.93925360  0.48691840  1
  Li  Li73  1  0.48691860  0.93925360  0.68691840  1
  Li  Li74  1  0.48691860  0.93925360  0.88691840  1
  Li  Li75  1  0.68691860  0.13925360  0.08691840  1
  Li  Li76  1  0.68691860  0.13925360  0.28691840  1
  Li  Li77  1  0.68691860  0.13925360  0.48691840  1
  Li  Li78  1  0.68691860  0.13925360  0.68691840  1
  Li  Li79  1  0.68691860  0.13925360  0.88691840  1
  Li  Li80  1  0.68691860  0.33925360  0.08691840  1
  Li  Li81  1  0.68691860  0.33925360  0.28691840  1
  Li  Li82  1  0.68691860  0.33925360  0.48691840  1
  Li  Li83  1  0.68691860  0.33925360  0.68691840  1
  Li  Li84  1  0.68691860  0.33925360  0.88691840  1
  Li  Li85  1  0.68691860  0.53925360  0.08691840  1
  Li  Li86  1  0.68691860  0.53925360  0.28691840  1
  Li  Li87  1  0.68691860  0.53925360  0.48691840  1
  Li  Li88  1  0.68691860  0.53925360  0.68691840  1
  Li  Li89  1  0.68691860  0.53925360  0.88691840  1
  Li  Li90  1  0.68691860  0.73925360  0.08691840  1
  Li  Li91  1  0.68691860  0.73925360  0.28691840  1
  Li  Li92  1  0.68691860  0.73925360  0.48691840  1
  Li  Li93  1  0.68691860  0.73925360  0.68691840  1
  Li  Li94  1  0.68691860  0.73925360  0.88691840  1
  Li  Li95  1  0.68691860  0.93925360  0.08691840  1
  Li  Li96  1  0.68691860  0.93925360  0.28691840  1
  Li  Li97  1  0.68691860  0.93925360  0.48691840  1
  Li  Li98  1  0.68691860  0.93925360  0.68691840  1
  Li  Li99  1  0.68691860  0.93925360  0.88691840  1
  Li  Li100  1  0.88691860  0.13925360  0.08691840  1
  Li  Li101  1  0.88691860  0.13925360  0.28691840  1
  Li  Li102  1  0.88691860  0.13925360  0.48691840  1
  Li  Li103  1  0.88691860  0.13925360  0.68691840  1
  Li  Li104  1  0.88691860  0.13925360  0.88691840  1
  Li  Li105  1  0.88691860  0.33925360  0.08691840  1
  Li  Li106  1  0.88691860  0.33925360  0.28691840  1
  Li  Li107  1  0.88691860  0.33925360  0.48691840  1
  Li  Li108  1  0.88691860  0.33925360  0.68691840  1
  Li  Li109  1  0.88691860  0.33925360  0.88691840  1
  Li  Li110  1  0.88691860  0.53925360  0.08691840  1
  Li  Li111  1  0.88691860  0.53925360  0.28691840  1
  Li  Li112  1  0.88691860  0.53925360  0.48691840  1
  Li  Li113  1  0.88691860  0.53925360  0.68691840  1
  Li  Li114  1  0.88691860  0.53925360  0.88691840  1
  Li  Li115  1  0.88691860  0.73925360  0.08691840  1
  Li  Li116  1  0.88691860  0.73925360  0.28691840  1
  Li  Li117  1  0.88691860  0.73925360  0.48691840  1
  Li  Li118  1  0.88691860  0.73925360  0.68691840  1
  Li  Li119  1  0.88691860  0.73925360  0.88691840  1
  Li  Li120  1  0.88691860  0.93925360  0.08691840  1
  Li  Li121  1  0.88691860  0.93925360  0.28691840  1
  Li  Li122  1  0.88691860  0.93925360  0.48691840  1
  Li  Li123  1  0.88691860  0.93925360  0.68691840  1
  Li  Li124  1  0.88691860  0.93925360  0.88691840  1
  Li  Li125  1  0.18691500  0.03925760  0.18691520  1
  Li  Li126  1  0.18691500  0.03925760  0.38691520  1
  Li  Li127  1  0.18691500  0.03925760  0.58691520  1
  Li  Li128  1  0.18691500  0.03925760  0.78691520  1
  Li  Li129  1  0.18691500  0.03925760  0.98691520  1
  Li  Li130  1  0.18691500  0.23925760  0.18691520  1
  Li  Li131  1  0.18691500  0.23925760  0.38691520  1
  Li  Li132  1  0.18691500  0.23925760  0.58691520  1
  Li  Li133  1  0.18691500  0.23925760  0.78691520  1
  Li  Li134  1  0.18691500  0.23925760  0.98691520  1
  Li  Li135  1  0.18691500  0.43925760  0.18691520  1
  Li  Li136  1  0.18691500  0.43925760  0.38691520  1
  Li  Li137  1  0.18691500  0.43925760  0.58691520  1
  Li  Li138  1  0.18691500  0.43925760  0.78691520  1
  Li  Li139  1  0.18691500  0.43925760  0.98691520  1
  Li  Li140  1  0.18691500  0.63925760  0.18691520  1
  Li  Li141  1  0.18691500  0.63925760  0.38691520  1
  Li  Li142  1  0.18691500  0.63925760  0.58691520  1
  Li  Li143  1  0.18691500  0.63925760  0.78691520  1
  Li  Li144  1  0.18691500  0.63925760  0.98691520  1
  Li  Li145  1  0.18691500  0.83925760  0.18691520  1
  Li  Li146  1  0.18691500  0.83925760  0.38691520  1
  Li  Li147  1  0.18691500  0.83925760  0.58691520  1
  Li  Li148  1  0.18691500  0.83925760  0.78691520  1
  Li  Li149  1  0.18691500  0.83925760  0.98691520  1
  Li  Li150  1  0.38691500  0.03925760  0.18691520  1
  Li  Li151  1  0.38691500  0.03925760  0.38691520  1
  Li  Li152  1  0.38691500  0.03925760  0.58691520  1
  Li  Li153  1  0.38691500  0.03925760  0.78691520  1
  Li  Li154  1  0.38691500  0.03925760  0.98691520  1
  Li  Li155  1  0.38691500  0.23925760  0.18691520  1
  Li  Li156  1  0.38691500  0.23925760  0.38691520  1
  Li  Li157  1  0.38691500  0.23925760  0.58691520  1
  Li  Li158  1  0.38691500  0.23925760  0.78691520  1
  Li  Li159  1  0.38691500  0.23925760  0.98691520  1
  Li  Li160  1  0.38691500  0.43925760  0.18691520  1
  Li  Li161  1  0.38691500  0.43925760  0.38691520  1
  Li  Li162  1  0.38691500  0.43925760  0.58691520  1
  Li  Li163  1  0.38691500  0.43925760  0.78691520  1
  Li  Li164  1  0.38691500  0.43925760  0.98691520  1
  Li  Li165  1  0.38691500  0.63925760  0.18691520  1
  Li  Li166  1  0.38691500  0.63925760  0.38691520  1
  Li  Li167  1  0.38691500  0.63925760  0.58691520  1
  Li  Li168  1  0.38691500  0.63925760  0.78691520  1
  Li  Li169  1  0.38691500  0.63925760  0.98691520  1
  Li  Li170  1  0.38691500  0.83925760  0.18691520  1
  Li  Li171  1  0.38691500  0.83925760  0.38691520  1
  Li  Li172  1  0.38691500  0.83925760  0.58691520  1
  Li  Li173  1  0.38691500  0.83925760  0.78691520  1
  Li  Li174  1  0.38691500  0.83925760  0.98691520  1
  Li  Li175  1  0.58691500  0.03925760  0.18691520  1
  Li  Li176  1  0.58691500  0.03925760  0.38691520  1
  Li  Li177  1  0.58691500  0.03925760  0.58691520  1
  Li  Li178  1  0.58691500  0.03925760  0.78691520  1
  Li  Li179  1  0.58691500  0.03925760  0.98691520  1
  Li  Li180  1  0.58691500  0.23925760  0.18691520  1
  Li  Li181  1  0.58691500  0.23925760  0.38691520  1
  Li  Li182  1  0.58691500  0.23925760  0.58691520  1
  Li  Li183  1  0.58691500  0.23925760  0.78691520  1
  Li  Li184  1  0.58691500  0.23925760  0.98691520  1
  Li  Li185  1  0.58691500  0.43925760  0.18691520  1
  Li  Li186  1  0.58691500  0.43925760  0.38691520  1
  Li  Li187  1  0.58691500  0.43925760  0.58691520  1
  Li  Li188  1  0.58691500  0.43925760  0.78691520  1
  Li  Li189  1  0.58691500  0.43925760  0.98691520  1
  Li  Li190  1  0.58691500  0.63925760  0.18691520  1
  Li  Li191  1  0.58691500  0.63925760  0.38691520  1
  Li  Li192  1  0.58691500  0.63925760  0.58691520  1
  Li  Li193  1  0.58691500  0.63925760  0.78691520  1
  Li  Li194  1  0.58691500  0.63925760  0.98691520  1
  Li  Li195  1  0.58691500  0.83925760  0.18691520  1
  Li  Li196  1  0.58691500  0.83925760  0.38691520  1
  Li  Li197  1  0.58691500  0.83925760  0.58691520  1
  Li  Li198  1  0.58691500  0.83925760  0.78691520  1
  Li  Li199  1  0.58691500  0.83925760  0.98691520  1
  Li  Li200  1  0.78691500  0.03925760  0.18691520  1
  Li  Li201  1  0.78691500  0.03925760  0.38691520  1
  Li  Li202  1  0.78691500  0.03925760  0.58691520  1
  Li  Li203  1  0.78691500  0.03925760  0.78691520  1
  Li  Li204  1  0.78691500  0.03925760  0.98691520  1
  Li  Li205  1  0.78691500  0.23925760  0.18691520  1
  Li  Li206  1  0.78691500  0.23925760  0.38691520  1
  Li  Li207  1  0.78691500  0.23925760  0.58691520  1
  Li  Li208  1  0.78691500  0.23925760  0.78691520  1
  Li  Li209  1  0.78691500  0.23925760  0.98691520  1
  Li  Li210  1  0.78691500  0.43925760  0.18691520  1
  Li  Li211  1  0.78691500  0.43925760  0.38691520  1
  Li  Li212  1  0.78691500  0.43925760  0.58691520  1
  Li  Li213  1  0.78691500  0.43925760  0.78691520  1
  Li  Li214  1  0.78691500  0.43925760  0.98691520  1
  Li  Li215  1  0.78691500  0.63925760  0.18691520  1
  Li  Li216  1  0.78691500  0.63925760  0.38691520  1
  Li  Li217  1  0.78691500  0.63925760  0.58691520  1
  Li  Li218  1  0.78691500  0.63925760  0.78691520  1
  Li  Li219  1  0.78691500  0.63925760  0.98691520  1
  Li  Li220  1  0.78691500  0.83925760  0.18691520  1
  Li  Li221  1  0.78691500  0.83925760  0.38691520  1
  Li  Li222  1  0.78691500  0.83925760  0.58691520  1
  Li  Li223  1  0.78691500  0.83925760  0.78691520  1
  Li  Li224  1  0.78691500  0.83925760  0.98691520  1
  Li  Li225  1  0.98691500  0.03925760  0.18691520  1
  Li  Li226  1  0.98691500  0.03925760  0.38691520  1
  Li  Li227  1  0.98691500  0.03925760  0.58691520  1
  Li  Li228  1  0.98691500  0.03925760  0.78691520  1
  Li  Li229  1  0.98691500  0.03925760  0.98691520  1
  Li  Li230  1  0.98691500  0.23925760  0.18691520  1
  Li  Li231  1  0.98691500  0.23925760  0.38691520  1
  Li  Li232  1  0.98691500  0.23925760  0.58691520  1
  Li  Li233  1  0.98691500  0.23925760  0.78691520  1
  Li  Li234  1  0.98691500  0.23925760  0.98691520  1
  Li  Li235  1  0.98691500  0.43925760  0.18691520  1
  Li  Li236  1  0.98691500  0.43925760  0.38691520  1
  Li  Li237  1  0.98691500  0.43925760  0.58691520  1
  Li  Li238  1  0.98691500  0.43925760  0.78691520  1
  Li  Li239  1  0.98691500  0.43925760  0.98691520  1
  Li  Li240  1  0.98691500  0.63925760  0.18691520  1
  Li  Li241  1  0.98691500  0.63925760  0.38691520  1
  Li  Li242  1  0.98691500  0.63925760  0.58691520  1
  Li  Li243  1  0.98691500  0.63925760  0.78691520  1
  Li  Li244  1  0.98691500  0.63925760  0.98691520  1
  Li  Li245  1  0.98691500  0.83925760  0.18691520  1
  Li  Li246  1  0.98691500  0.83925760  0.38691520  1
  Li  Li247  1  0.98691500  0.83925760  0.58691520  1
  Li  Li248  1  0.98691500  0.83925760  0.78691520  1
  Li  Li249  1  0.98691500  0.83925760  0.98691520  1
  Li  Li250  1  0.01308480  0.16074240  0.01308480  1
  Li  Li251  1  0.01308480  0.16074240  0.21308480  1
  Li  Li252  1  0.01308480  0.16074240  0.41308480  1
  Li  Li253  1  0.01308480  0.16074240  0.61308480  1
  Li  Li254  1  0.01308480  0.16074240  0.81308480  1
  Li  Li255  1  0.01308480  0.36074240  0.01308480  1
  Li  Li256  1  0.01308480  0.36074240  0.21308480  1
  Li  Li257  1  0.01308480  0.36074240  0.41308480  1
  Li  Li258  1  0.01308480  0.36074240  0.61308480  1
  Li  Li259  1  0.01308480  0.36074240  0.81308480  1
  Li  Li260  1  0.01308480  0.56074240  0.01308480  1
  Li  Li261  1  0.01308480  0.56074240  0.21308480  1
  Li  Li262  1  0.01308480  0.56074240  0.41308480  1
  Li  Li263  1  0.01308480  0.56074240  0.61308480  1
  Li  Li264  1  0.01308480  0.56074240  0.81308480  1
  Li  Li265  1  0.01308480  0.76074240  0.01308480  1
  Li  Li266  1  0.01308480  0.76074240  0.21308480  1
  Li  Li267  1  0.01308480  0.76074240  0.41308480  1
  Li  Li268  1  0.01308480  0.76074240  0.61308480  1
  Li  Li269  1  0.01308480  0.76074240  0.81308480  1
  Li  Li270  1  0.01308480  0.96074240  0.01308480  1
  Li  Li271  1  0.01308480  0.96074240  0.21308480  1
  Li  Li272  1  0.01308480  0.96074240  0.41308480  1
  Li  Li273  1  0.01308480  0.96074240  0.61308480  1
  Li  Li274  1  0.01308480  0.96074240  0.81308480  1
  Li  Li275  1  0.21308480  0.16074240  0.01308480  1
  Li  Li276  1  0.21308480  0.16074240  0.21308480  1
  Li  Li277  1  0.21308480  0.16074240  0.41308480  1
  Li  Li278  1  0.21308480  0.16074240  0.61308480  1
  Li  Li279  1  0.21308480  0.16074240  0.81308480  1
  Li  Li280  1  0.21308480  0.36074240  0.01308480  1
  Li  Li281  1  0.21308480  0.36074240  0.21308480  1
  Li  Li282  1  0.21308480  0.36074240  0.41308480  1
  Li  Li283  1  0.21308480  0.36074240  0.61308480  1
  Li  Li284  1  0.21308480  0.36074240  0.81308480  1
  Li  Li285  1  0.21308480  0.56074240  0.01308480  1
  Li  Li286  1  0.21308480  0.56074240  0.21308480  1
  Li  Li287  1  0.21308480  0.56074240  0.41308480  1
  Li  Li288  1  0.21308480  0.56074240  0.61308480  1
  Li  Li289  1  0.21308480  0.56074240  0.81308480  1
  Li  Li290  1  0.21308480  0.76074240  0.01308480  1
  Li  Li291  1  0.21308480  0.76074240  0.21308480  1
  Li  Li292  1  0.21308480  0.76074240  0.41308480  1
  Li  Li293  1  0.21308480  0.76074240  0.61308480  1
  Li  Li294  1  0.21308480  0.76074240  0.81308480  1
  Li  Li295  1  0.21308480  0.96074240  0.01308480  1
  Li  Li296  1  0.21308480  0.96074240  0.21308480  1
  Li  Li297  1  0.21308480  0.96074240  0.41308480  1
  Li  Li298  1  0.21308480  0.96074240  0.61308480  1
  Li  Li299  1  0.21308480  0.96074240  0.81308480  1
  Li  Li300  1  0.41308480  0.16074240  0.01308480  1
  Li  Li301  1  0.41308480  0.16074240  0.21308480  1
  Li  Li302  1  0.41308480  0.16074240  0.41308480  1
  Li  Li303  1  0.41308480  0.16074240  0.61308480  1
  Li  Li304  1  0.41308480  0.16074240  0.81308480  1
  Li  Li305  1  0.41308480  0.36074240  0.01308480  1
  Li  Li306  1  0.41308480  0.36074240  0.21308480  1
  Li  Li307  1  0.41308480  0.36074240  0.41308480  1
  Li  Li308  1  0.41308480  0.36074240  0.61308480  1
  Li  Li309  1  0.41308480  0.36074240  0.81308480  1
  Li  Li310  1  0.41308480  0.56074240  0.01308480  1
  Li  Li311  1  0.41308480  0.56074240  0.21308480  1
  Li  Li312  1  0.41308480  0.56074240  0.41308480  1
  Li  Li313  1  0.41308480  0.56074240  0.61308480  1
  Li  Li314  1  0.41308480  0.56074240  0.81308480  1
  Li  Li315  1  0.41308480  0.76074240  0.01308480  1
  Li  Li316  1  0.41308480  0.76074240  0.21308480  1
  Li  Li317  1  0.41308480  0.76074240  0.41308480  1
  Li  Li318  1  0.41308480  0.76074240  0.61308480  1
  Li  Li319  1  0.41308480  0.76074240  0.81308480  1
  Li  Li320  1  0.41308480  0.96074240  0.01308480  1
  Li  Li321  1  0.41308480  0.96074240  0.21308480  1
  Li  Li322  1  0.41308480  0.96074240  0.41308480  1
  Li  Li323  1  0.41308480  0.96074240  0.61308480  1
  Li  Li324  1  0.41308480  0.96074240  0.81308480  1
  Li  Li325  1  0.61308480  0.16074240  0.01308480  1
  Li  Li326  1  0.61308480  0.16074240  0.21308480  1
  Li  Li327  1  0.61308480  0.16074240  0.41308480  1
  Li  Li328  1  0.61308480  0.16074240  0.61308480  1
  Li  Li329  1  0.61308480  0.16074240  0.81308480  1
  Li  Li330  1  0.61308480  0.36074240  0.01308480  1
  Li  Li331  1  0.61308480  0.36074240  0.21308480  1
  Li  Li332  1  0.61308480  0.36074240  0.41308480  1
  Li  Li333  1  0.61308480  0.36074240  0.61308480  1
  Li  Li334  1  0.61308480  0.36074240  0.81308480  1
  Li  Li335  1  0.61308480  0.56074240  0.01308480  1
  Li  Li336  1  0.61308480  0.56074240  0.21308480  1
  Li  Li337  1  0.61308480  0.56074240  0.41308480  1
  Li  Li338  1  0.61308480  0.56074240  0.61308480  1
  Li  Li339  1  0.61308480  0.56074240  0.81308480  1
  Li  Li340  1  0.61308480  0.76074240  0.01308480  1
  Li  Li341  1  0.61308480  0.76074240  0.21308480  1
  Li  Li342  1  0.61308480  0.76074240  0.41308480  1
  Li  Li343  1  0.61308480  0.76074240  0.61308480  1
  Li  Li344  1  0.61308480  0.76074240  0.81308480  1
  Li  Li345  1  0.61308480  0.96074240  0.01308480  1
  Li  Li346  1  0.61308480  0.96074240  0.21308480  1
  Li  Li347  1  0.61308480  0.96074240  0.41308480  1
  Li  Li348  1  0.61308480  0.96074240  0.61308480  1
  Li  Li349  1  0.61308480  0.96074240  0.81308480  1
  Li  Li350  1  0.81308480  0.16074240  0.01308480  1
  Li  Li351  1  0.81308480  0.16074240  0.21308480  1
  Li  Li352  1  0.81308480  0.16074240  0.41308480  1
  Li  Li353  1  0.81308480  0.16074240  0.61308480  1
  Li  Li354  1  0.81308480  0.16074240  0.81308480  1
  Li  Li355  1  0.81308480  0.36074240  0.01308480  1
  Li  Li356  1  0.81308480  0.36074240  0.21308480  1
  Li  Li357  1  0.81308480  0.36074240  0.41308480  1
  Li  Li358  1  0.81308480  0.36074240  0.61308480  1
  Li  Li359  1  0.81308480  0.36074240  0.81308480  1
  Li  Li360  1  0.81308480  0.56074240  0.01308480  1
  Li  Li361  1  0.81308480  0.56074240  0.21308480  1
  Li  Li362  1  0.81308480  0.56074240  0.41308480  1
  Li  Li363  1  0.81308480  0.56074240  0.61308480  1
  Li  Li364  1  0.81308480  0.56074240  0.81308480  1
  Li  Li365  1  0.81308480  0.76074240  0.01308480  1
  Li  Li366  1  0.81308480  0.76074240  0.21308480  1
  Li  Li367  1  0.81308480  0.76074240  0.41308480  1
  Li  Li368  1  0.81308480  0.76074240  0.61308480  1
  Li  Li369  1  0.81308480  0.76074240  0.81308480  1
  Li  Li370  1  0.81308480  0.96074240  0.01308480  1
  Li  Li371  1  0.81308480  0.96074240  0.21308480  1
  Li  Li372  1  0.81308480  0.96074240  0.41308480  1
  Li  Li373  1  0.81308480  0.96074240  0.61308480  1
  Li  Li374  1  0.81308480  0.96074240  0.81308480  1
  Li  Li375  1  0.11308140  0.06074640  0.11308160  1
  Li  Li376  1  0.11308140  0.06074640  0.31308160  1
  Li  Li377  1  0.11308140  0.06074640  0.51308160  1
  Li  Li378  1  0.11308140  0.06074640  0.71308160  1
  Li  Li379  1  0.11308140  0.06074640  0.91308160  1
  Li  Li380  1  0.11308140  0.26074640  0.11308160  1
  Li  Li381  1  0.11308140  0.26074640  0.31308160  1
  Li  Li382  1  0.11308140  0.26074640  0.51308160  1
  Li  Li383  1  0.11308140  0.26074640  0.71308160  1
  Li  Li384  1  0.11308140  0.26074640  0.91308160  1
  Li  Li385  1  0.11308140  0.46074640  0.11308160  1
  Li  Li386  1  0.11308140  0.46074640  0.31308160  1
  Li  Li387  1  0.11308140  0.46074640  0.51308160  1
  Li  Li388  1  0.11308140  0.46074640  0.71308160  1
  Li  Li389  1  0.11308140  0.46074640  0.91308160  1
  Li  Li390  1  0.11308140  0.66074640  0.11308160  1
  Li  Li391  1  0.11308140  0.66074640  0.31308160  1
  Li  Li392  1  0.11308140  0.66074640  0.51308160  1
  Li  Li393  1  0.11308140  0.66074640  0.71308160  1
  Li  Li394  1  0.11308140  0.66074640  0.91308160  1
  Li  Li395  1  0.11308140  0.86074640  0.11308160  1
  Li  Li396  1  0.11308140  0.86074640  0.31308160  1
  Li  Li397  1  0.11308140  0.86074640  0.51308160  1
  Li  Li398  1  0.11308140  0.86074640  0.71308160  1
  Li  Li399  1  0.11308140  0.86074640  0.91308160  1
  Li  Li400  1  0.31308140  0.06074640  0.11308160  1
  Li  Li401  1  0.31308140  0.06074640  0.31308160  1
  Li  Li402  1  0.31308140  0.06074640  0.51308160  1
  Li  Li403  1  0.31308140  0.06074640  0.71308160  1
  Li  Li404  1  0.31308140  0.06074640  0.91308160  1
  Li  Li405  1  0.31308140  0.26074640  0.11308160  1
  Li  Li406  1  0.31308140  0.26074640  0.31308160  1
  Li  Li407  1  0.31308140  0.26074640  0.51308160  1
  Li  Li408  1  0.31308140  0.26074640  0.71308160  1
  Li  Li409  1  0.31308140  0.26074640  0.91308160  1
  Li  Li410  1  0.31308140  0.46074640  0.11308160  1
  Li  Li411  1  0.31308140  0.46074640  0.31308160  1
  Li  Li412  1  0.31308140  0.46074640  0.51308160  1
  Li  Li413  1  0.31308140  0.46074640  0.71308160  1
  Li  Li414  1  0.31308140  0.46074640  0.91308160  1
  Li  Li415  1  0.31308140  0.66074640  0.11308160  1
  Li  Li416  1  0.31308140  0.66074640  0.31308160  1
  Li  Li417  1  0.31308140  0.66074640  0.51308160  1
  Li  Li418  1  0.31308140  0.66074640  0.71308160  1
  Li  Li419  1  0.31308140  0.66074640  0.91308160  1
  Li  Li420  1  0.31308140  0.86074640  0.11308160  1
  Li  Li421  1  0.31308140  0.86074640  0.31308160  1
  Li  Li422  1  0.31308140  0.86074640  0.51308160  1
  Li  Li423  1  0.31308140  0.86074640  0.71308160  1
  Li  Li424  1  0.31308140  0.86074640  0.91308160  1
  Li  Li425  1  0.51308140  0.06074640  0.11308160  1
  Li  Li426  1  0.51308140  0.06074640  0.31308160  1
  Li  Li427  1  0.51308140  0.06074640  0.51308160  1
  Li  Li428  1  0.51308140  0.06074640  0.71308160  1
  Li  Li429  1  0.51308140  0.06074640  0.91308160  1
  Li  Li430  1  0.51308140  0.26074640  0.11308160  1
  Li  Li431  1  0.51308140  0.26074640  0.31308160  1
  Li  Li432  1  0.51308140  0.26074640  0.51308160  1
  Li  Li433  1  0.51308140  0.26074640  0.71308160  1
  Li  Li434  1  0.51308140  0.26074640  0.91308160  1
  Li  Li435  1  0.51308140  0.46074640  0.11308160  1
  Li  Li436  1  0.51308140  0.46074640  0.31308160  1
  Li  Li437  1  0.51308140  0.46074640  0.51308160  1
  Li  Li438  1  0.51308140  0.46074640  0.71308160  1
  Li  Li439  1  0.51308140  0.46074640  0.91308160  1
  Li  Li440  1  0.51308140  0.66074640  0.11308160  1
  Li  Li441  1  0.51308140  0.66074640  0.31308160  1
  Li  Li442  1  0.51308140  0.66074640  0.51308160  1
  Li  Li443  1  0.51308140  0.66074640  0.71308160  1
  Li  Li444  1  0.51308140  0.66074640  0.91308160  1
  Li  Li445  1  0.51308140  0.86074640  0.11308160  1
  Li  Li446  1  0.51308140  0.86074640  0.31308160  1
  Li  Li447  1  0.51308140  0.86074640  0.51308160  1
  Li  Li448  1  0.51308140  0.86074640  0.71308160  1
  Li  Li449  1  0.51308140  0.86074640  0.91308160  1
  Li  Li450  1  0.71308140  0.06074640  0.11308160  1
  Li  Li451  1  0.71308140  0.06074640  0.31308160  1
  Li  Li452  1  0.71308140  0.06074640  0.51308160  1
  Li  Li453  1  0.71308140  0.06074640  0.71308160  1
  Li  Li454  1  0.71308140  0.06074640  0.91308160  1
  Li  Li455  1  0.71308140  0.26074640  0.11308160  1
  Li  Li456  1  0.71308140  0.26074640  0.31308160  1
  Li  Li457  1  0.71308140  0.26074640  0.51308160  1
  Li  Li458  1  0.71308140  0.26074640  0.71308160  1
  Li  Li459  1  0.71308140  0.26074640  0.91308160  1
  Li  Li460  1  0.71308140  0.46074640  0.11308160  1
  Li  Li461  1  0.71308140  0.46074640  0.31308160  1
  Li  Li462  1  0.71308140  0.46074640  0.51308160  1
  Li  Li463  1  0.71308140  0.46074640  0.71308160  1
  Li  Li464  1  0.71308140  0.46074640  0.91308160  1
  Li  Li465  1  0.71308140  0.66074640  0.11308160  1
  Li  Li466  1  0.71308140  0.66074640  0.31308160  1
  Li  Li467  1  0.71308140  0.66074640  0.51308160  1
  Li  Li468  1  0.71308140  0.66074640  0.71308160  1
  Li  Li469  1  0.71308140  0.66074640  0.91308160  1
  Li  Li470  1  0.71308140  0.86074640  0.11308160  1
  Li  Li471  1  0.71308140  0.86074640  0.31308160  1
  Li  Li472  1  0.71308140  0.86074640  0.51308160  1
  Li  Li473  1  0.71308140  0.86074640  0.71308160  1
  Li  Li474  1  0.71308140  0.86074640  0.91308160  1
  Li  Li475  1  0.91308140  0.06074640  0.11308160  1
  Li  Li476  1  0.91308140  0.06074640  0.31308160  1
  Li  Li477  1  0.91308140  0.06074640  0.51308160  1
  Li  Li478  1  0.91308140  0.06074640  0.71308160  1
  Li  Li479  1  0.91308140  0.06074640  0.91308160  1
  Li  Li480  1  0.91308140  0.26074640  0.11308160  1
  Li  Li481  1  0.91308140  0.26074640  0.31308160  1
  Li  Li482  1  0.91308140  0.26074640  0.51308160  1
  Li  Li483  1  0.91308140  0.26074640  0.71308160  1
  Li  Li484  1  0.91308140  0.26074640  0.91308160  1
  Li  Li485  1  0.91308140  0.46074640  0.11308160  1
  Li  Li486  1  0.91308140  0.46074640  0.31308160  1
  Li  Li487  1  0.91308140  0.46074640  0.51308160  1
  Li  Li488  1  0.91308140  0.46074640  0.71308160  1
  Li  Li489  1  0.91308140  0.46074640  0.91308160  1
  Li  Li490  1  0.91308140  0.66074640  0.11308160  1
  Li  Li491  1  0.91308140  0.66074640  0.31308160  1
  Li  Li492  1  0.91308140  0.66074640  0.51308160  1
  Li  Li493  1  0.91308140  0.66074640  0.71308160  1
  Li  Li494  1  0.91308140  0.66074640  0.91308160  1
  Li  Li495  1  0.91308140  0.86074640  0.11308160  1
  Li  Li496  1  0.91308140  0.86074640  0.31308160  1
  Li  Li497  1  0.91308140  0.86074640  0.51308160  1
  Li  Li498  1  0.91308140  0.86074640  0.71308160  1
  Li  Li499  1  0.91308140  0.86074640  0.91308160  1
  V  V500  1  0.09999980  1.00000000  0.10000000  1
  V  V501  1  0.09999980  1.00000000  0.30000000  1
  V  V502  1  0.09999980  1.00000000  0.50000000  1
  V  V503  1  0.09999980  1.00000000  0.70000000  1
  V  V504  1  0.09999980  1.00000000  0.90000000  1
  V  V505  1  0.09999980  0.20000000  0.10000000  1
  V  V506  1  0.09999980  0.20000000  0.30000000  1
  V  V507  1  0.09999980  0.20000000  0.50000000  1
  V  V508  1  0.09999980  0.20000000  0.70000000  1
  V  V509  1  0.09999980  0.20000000  0.90000000  1
  V  V510  1  0.09999980  0.40000000  0.10000000  1
  V  V511  1  0.09999980  0.40000000  0.30000000  1
  V  V512  1  0.09999980  0.40000000  0.50000000  1
  V  V513  1  0.09999980  0.40000000  0.70000000  1
  V  V514  1  0.09999980  0.40000000  0.90000000  1
  V  V515  1  0.09999980  0.60000000  0.10000000  1
  V  V516  1  0.09999980  0.60000000  0.30000000  1
  V  V517  1  0.09999980  0.60000000  0.50000000  1
  V  V518  1  0.09999980  0.60000000  0.70000000  1
  V  V519  1  0.09999980  0.60000000  0.90000000  1
  V  V520  1  0.09999980  0.80000000  0.10000000  1
  V  V521  1  0.09999980  0.80000000  0.30000000  1
  V  V522  1  0.09999980  0.80000000  0.50000000  1
  V  V523  1  0.09999980  0.80000000  0.70000000  1
  V  V524  1  0.09999980  0.80000000  0.90000000  1
  V  V525  1  0.29999980  1.00000000  0.10000000  1
  V  V526  1  0.29999980  1.00000000  0.30000000  1
  V  V527  1  0.29999980  1.00000000  0.50000000  1
  V  V528  1  0.29999980  1.00000000  0.70000000  1
  V  V529  1  0.29999980  1.00000000  0.90000000  1
  V  V530  1  0.29999980  0.20000000  0.10000000  1
  V  V531  1  0.29999980  0.20000000  0.30000000  1
  V  V532  1  0.29999980  0.20000000  0.50000000  1
  V  V533  1  0.29999980  0.20000000  0.70000000  1
  V  V534  1  0.29999980  0.20000000  0.90000000  1
  V  V535  1  0.29999980  0.40000000  0.10000000  1
  V  V536  1  0.29999980  0.40000000  0.30000000  1
  V  V537  1  0.29999980  0.40000000  0.50000000  1
  V  V538  1  0.29999980  0.40000000  0.70000000  1
  V  V539  1  0.29999980  0.40000000  0.90000000  1
  V  V540  1  0.29999980  0.60000000  0.10000000  1
  V  V541  1  0.29999980  0.60000000  0.30000000  1
  V  V542  1  0.29999980  0.60000000  0.50000000  1
  V  V543  1  0.29999980  0.60000000  0.70000000  1
  V  V544  1  0.29999980  0.60000000  0.90000000  1
  V  V545  1  0.29999980  0.80000000  0.10000000  1
  V  V546  1  0.29999980  0.80000000  0.30000000  1
  V  V547  1  0.29999980  0.80000000  0.50000000  1
  V  V548  1  0.29999980  0.80000000  0.70000000  1
  V  V549  1  0.29999980  0.80000000  0.90000000  1
  V  V550  1  0.49999980  1.00000000  0.10000000  1
  V  V551  1  0.49999980  1.00000000  0.30000000  1
  V  V552  1  0.49999980  1.00000000  0.50000000  1
  V  V553  1  0.49999980  1.00000000  0.70000000  1
  V  V554  1  0.49999980  1.00000000  0.90000000  1
  V  V555  1  0.49999980  0.20000000  0.10000000  1
  V  V556  1  0.49999980  0.20000000  0.30000000  1
  V  V557  1  0.49999980  0.20000000  0.50000000  1
  V  V558  1  0.49999980  0.20000000  0.70000000  1
  V  V559  1  0.49999980  0.20000000  0.90000000  1
  V  V560  1  0.49999980  0.40000000  0.10000000  1
  V  V561  1  0.49999980  0.40000000  0.30000000  1
  V  V562  1  0.49999980  0.40000000  0.50000000  1
  V  V563  1  0.49999980  0.40000000  0.70000000  1
  V  V564  1  0.49999980  0.40000000  0.90000000  1
  V  V565  1  0.49999980  0.60000000  0.10000000  1
  V  V566  1  0.49999980  0.60000000  0.30000000  1
  V  V567  1  0.49999980  0.60000000  0.50000000  1
  V  V568  1  0.49999980  0.60000000  0.70000000  1
  V  V569  1  0.49999980  0.60000000  0.90000000  1
  V  V570  1  0.49999980  0.80000000  0.10000000  1
  V  V571  1  0.49999980  0.80000000  0.30000000  1
  V  V572  1  0.49999980  0.80000000  0.50000000  1
  V  V573  1  0.49999980  0.80000000  0.70000000  1
  V  V574  1  0.49999980  0.80000000  0.90000000  1
  V  V575  1  0.69999980  1.00000000  0.10000000  1
  V  V576  1  0.69999980  1.00000000  0.30000000  1
  V  V577  1  0.69999980  1.00000000  0.50000000  1
  V  V578  1  0.69999980  1.00000000  0.70000000  1
  V  V579  1  0.69999980  1.00000000  0.90000000  1
  V  V580  1  0.69999980  0.20000000  0.10000000  1
  V  V581  1  0.69999980  0.20000000  0.30000000  1
  V  V582  1  0.69999980  0.20000000  0.50000000  1
  V  V583  1  0.69999980  0.20000000  0.70000000  1
  V  V584  1  0.69999980  0.20000000  0.90000000  1
  V  V585  1  0.69999980  0.40000000  0.10000000  1
  V  V586  1  0.69999980  0.40000000  0.30000000  1
  V  V587  1  0.69999980  0.40000000  0.50000000  1
  V  V588  1  0.69999980  0.40000000  0.70000000  1
  V  V589  1  0.69999980  0.40000000  0.90000000  1
  V  V590  1  0.69999980  0.60000000  0.10000000  1
  V  V591  1  0.69999980  0.60000000  0.30000000  1
  V  V592  1  0.69999980  0.60000000  0.50000000  1
  V  V593  1  0.69999980  0.60000000  0.70000000  1
  V  V594  1  0.69999980  0.60000000  0.90000000  1
  V  V595  1  0.69999980  0.80000000  0.10000000  1
  V  V596  1  0.69999980  0.80000000  0.30000000  1
  V  V597  1  0.69999980  0.80000000  0.50000000  1
  V  V598  1  0.69999980  0.80000000  0.70000000  1
  V  V599  1  0.69999980  0.80000000  0.90000000  1
  V  V600  1  0.89999980  1.00000000  0.10000000  1
  V  V601  1  0.89999980  1.00000000  0.30000000  1
  V  V602  1  0.89999980  1.00000000  0.50000000  1
  V  V603  1  0.89999980  1.00000000  0.70000000  1
  V  V604  1  0.89999980  1.00000000  0.90000000  1
  V  V605  1  0.89999980  0.20000000  0.10000000  1
  V  V606  1  0.89999980  0.20000000  0.30000000  1
  V  V607  1  0.89999980  0.20000000  0.50000000  1
  V  V608  1  0.89999980  0.20000000  0.70000000  1
  V  V609  1  0.89999980  0.20000000  0.90000000  1
  V  V610  1  0.89999980  0.40000000  0.10000000  1
  V  V611  1  0.89999980  0.40000000  0.30000000  1
  V  V612  1  0.89999980  0.40000000  0.50000000  1
  V  V613  1  0.89999980  0.40000000  0.70000000  1
  V  V614  1  0.89999980  0.40000000  0.90000000  1
  V  V615  1  0.89999980  0.60000000  0.10000000  1
  V  V616  1  0.89999980  0.60000000  0.30000000  1
  V  V617  1  0.89999980  0.60000000  0.50000000  1
  V  V618  1  0.89999980  0.60000000  0.70000000  1
  V  V619  1  0.89999980  0.60000000  0.90000000  1
  V  V620  1  0.89999980  0.80000000  0.10000000  1
  V  V621  1  0.89999980  0.80000000  0.30000000  1
  V  V622  1  0.89999980  0.80000000  0.50000000  1
  V  V623  1  0.89999980  0.80000000  0.70000000  1
  V  V624  1  0.89999980  0.80000000  0.90000000  1
  V  V625  1  0.09999980  0.19999980  0.00000020  1
  V  V626  1  0.09999980  0.19999980  0.20000020  1
  V  V627  1  0.09999980  0.19999980  0.40000020  1
  V  V628  1  0.09999980  0.19999980  0.60000020  1
  V  V629  1  0.09999980  0.19999980  0.80000020  1
  V  V630  1  0.09999980  0.39999980  0.00000020  1
  V  V631  1  0.09999980  0.39999980  0.20000020  1
  V  V632  1  0.09999980  0.39999980  0.40000020  1
  V  V633  1  0.09999980  0.39999980  0.60000020  1
  V  V634  1  0.09999980  0.39999980  0.80000020  1
  V  V635  1  0.09999980  0.59999980  0.00000020  1
  V  V636  1  0.09999980  0.59999980  0.20000020  1
  V  V637  1  0.09999980  0.59999980  0.40000020  1
  V  V638  1  0.09999980  0.59999980  0.60000020  1
  V  V639  1  0.09999980  0.59999980  0.80000020  1
  V  V640  1  0.09999980  0.79999980  0.00000020  1
  V  V641  1  0.09999980  0.79999980  0.20000020  1
  V  V642  1  0.09999980  0.79999980  0.40000020  1
  V  V643  1  0.09999980  0.79999980  0.60000020  1
  V  V644  1  0.09999980  0.79999980  0.80000020  1
  V  V645  1  0.09999980  0.99999980  0.00000020  1
  V  V646  1  0.09999980  0.99999980  0.20000020  1
  V  V647  1  0.09999980  0.99999980  0.40000020  1
  V  V648  1  0.09999980  0.99999980  0.60000020  1
  V  V649  1  0.09999980  0.99999980  0.80000020  1
  V  V650  1  0.29999980  0.19999980  0.00000020  1
  V  V651  1  0.29999980  0.19999980  0.20000020  1
  V  V652  1  0.29999980  0.19999980  0.40000020  1
  V  V653  1  0.29999980  0.19999980  0.60000020  1
  V  V654  1  0.29999980  0.19999980  0.80000020  1
  V  V655  1  0.29999980  0.39999980  0.00000020  1
  V  V656  1  0.29999980  0.39999980  0.20000020  1
  V  V657  1  0.29999980  0.39999980  0.40000020  1
  V  V658  1  0.29999980  0.39999980  0.60000020  1
  V  V659  1  0.29999980  0.39999980  0.80000020  1
  V  V660  1  0.29999980  0.59999980  0.00000020  1
  V  V661  1  0.29999980  0.59999980  0.20000020  1
  V  V662  1  0.29999980  0.59999980  0.40000020  1
  V  V663  1  0.29999980  0.59999980  0.60000020  1
  V  V664  1  0.29999980  0.59999980  0.80000020  1
  V  V665  1  0.29999980  0.79999980  0.00000020  1
  V  V666  1  0.29999980  0.79999980  0.20000020  1
  V  V667  1  0.29999980  0.79999980  0.40000020  1
  V  V668  1  0.29999980  0.79999980  0.60000020  1
  V  V669  1  0.29999980  0.79999980  0.80000020  1
  V  V670  1  0.29999980  0.99999980  0.00000020  1
  V  V671  1  0.29999980  0.99999980  0.20000020  1
  V  V672  1  0.29999980  0.99999980  0.40000020  1
  V  V673  1  0.29999980  0.99999980  0.60000020  1
  V  V674  1  0.29999980  0.99999980  0.80000020  1
  V  V675  1  0.49999980  0.19999980  0.00000020  1
  V  V676  1  0.49999980  0.19999980  0.20000020  1
  V  V677  1  0.49999980  0.19999980  0.40000020  1
  V  V678  1  0.49999980  0.19999980  0.60000020  1
  V  V679  1  0.49999980  0.19999980  0.80000020  1
  V  V680  1  0.49999980  0.39999980  0.00000020  1
  V  V681  1  0.49999980  0.39999980  0.20000020  1
  V  V682  1  0.49999980  0.39999980  0.40000020  1
  V  V683  1  0.49999980  0.39999980  0.60000020  1
  V  V684  1  0.49999980  0.39999980  0.80000020  1
  V  V685  1  0.49999980  0.59999980  0.00000020  1
  V  V686  1  0.49999980  0.59999980  0.20000020  1
  V  V687  1  0.49999980  0.59999980  0.40000020  1
  V  V688  1  0.49999980  0.59999980  0.60000020  1
  V  V689  1  0.49999980  0.59999980  0.80000020  1
  V  V690  1  0.49999980  0.79999980  0.00000020  1
  V  V691  1  0.49999980  0.79999980  0.20000020  1
  V  V692  1  0.49999980  0.79999980  0.40000020  1
  V  V693  1  0.49999980  0.79999980  0.60000020  1
  V  V694  1  0.49999980  0.79999980  0.80000020  1
  V  V695  1  0.49999980  0.99999980  0.00000020  1
  V  V696  1  0.49999980  0.99999980  0.20000020  1
  V  V697  1  0.49999980  0.99999980  0.40000020  1
  V  V698  1  0.49999980  0.99999980  0.60000020  1
  V  V699  1  0.49999980  0.99999980  0.80000020  1
  V  V700  1  0.69999980  0.19999980  0.00000020  1
  V  V701  1  0.69999980  0.19999980  0.20000020  1
  V  V702  1  0.69999980  0.19999980  0.40000020  1
  V  V703  1  0.69999980  0.19999980  0.60000020  1
  V  V704  1  0.69999980  0.19999980  0.80000020  1
  V  V705  1  0.69999980  0.39999980  0.00000020  1
  V  V706  1  0.69999980  0.39999980  0.20000020  1
  V  V707  1  0.69999980  0.39999980  0.40000020  1
  V  V708  1  0.69999980  0.39999980  0.60000020  1
  V  V709  1  0.69999980  0.39999980  0.80000020  1
  V  V710  1  0.69999980  0.59999980  0.00000020  1
  V  V711  1  0.69999980  0.59999980  0.20000020  1
  V  V712  1  0.69999980  0.59999980  0.40000020  1
  V  V713  1  0.69999980  0.59999980  0.60000020  1
  V  V714  1  0.69999980  0.59999980  0.80000020  1
  V  V715  1  0.69999980  0.79999980  0.00000020  1
  V  V716  1  0.69999980  0.79999980  0.20000020  1
  V  V717  1  0.69999980  0.79999980  0.40000020  1
  V  V718  1  0.69999980  0.79999980  0.60000020  1
  V  V719  1  0.69999980  0.79999980  0.80000020  1
  V  V720  1  0.69999980  0.99999980  0.00000020  1
  V  V721  1  0.69999980  0.99999980  0.20000020  1
  V  V722  1  0.69999980  0.99999980  0.40000020  1
  V  V723  1  0.69999980  0.99999980  0.60000020  1
  V  V724  1  0.69999980  0.99999980  0.80000020  1
  V  V725  1  0.89999980  0.19999980  0.00000020  1
  V  V726  1  0.89999980  0.19999980  0.20000020  1
  V  V727  1  0.89999980  0.19999980  0.40000020  1
  V  V728  1  0.89999980  0.19999980  0.60000020  1
  V  V729  1  0.89999980  0.19999980  0.80000020  1
  V  V730  1  0.89999980  0.39999980  0.00000020  1
  V  V731  1  0.89999980  0.39999980  0.20000020  1
  V  V732  1  0.89999980  0.39999980  0.40000020  1
  V  V733  1  0.89999980  0.39999980  0.60000020  1
  V  V734  1  0.89999980  0.39999980  0.80000020  1
  V  V735  1  0.89999980  0.59999980  0.00000020  1
  V  V736  1  0.89999980  0.59999980  0.20000020  1
  V  V737  1  0.89999980  0.59999980  0.40000020  1
  V  V738  1  0.89999980  0.59999980  0.60000020  1
  V  V739  1  0.89999980  0.59999980  0.80000020  1
  V  V740  1  0.89999980  0.79999980  0.00000020  1
  V  V741  1  0.89999980  0.79999980  0.20000020  1
  V  V742  1  0.89999980  0.79999980  0.40000020  1
  V  V743  1  0.89999980  0.79999980  0.60000020  1
  V  V744  1  0.89999980  0.79999980  0.80000020  1
  V  V745  1  0.89999980  0.99999980  0.00000020  1
  V  V746  1  0.89999980  0.99999980  0.20000020  1
  V  V747  1  0.89999980  0.99999980  0.40000020  1
  V  V748  1  0.89999980  0.99999980  0.60000020  1
  V  V749  1  0.89999980  0.99999980  0.80000020  1
  V  V750  1  0.00000000  0.19999980  0.10000020  1
  V  V751  1  0.00000000  0.19999980  0.30000020  1
  V  V752  1  0.00000000  0.19999980  0.50000020  1
  V  V753  1  1.00000000  0.19999980  0.70000020  1
  V  V754  1  0.00000000  0.19999980  0.90000020  1
  V  V755  1  0.00000000  0.39999980  0.10000020  1
  V  V756  1  0.00000000  0.39999980  0.30000020  1
  V  V757  1  0.00000000  0.39999980  0.50000020  1
  V  V758  1  1.00000000  0.39999980  0.70000020  1
  V  V759  1  1.00000000  0.39999980  0.90000020  1
  V  V760  1  0.00000000  0.59999980  0.10000020  1
  V  V761  1  1.00000000  0.59999980  0.30000020  1
  V  V762  1  1.00000000  0.59999980  0.50000020  1
  V  V763  1  1.00000000  0.59999980  0.70000020  1
  V  V764  1  0.00000000  0.59999980  0.90000020  1
  V  V765  1  1.00000000  0.79999980  0.10000020  1
  V  V766  1  1.00000000  0.79999980  0.30000020  1
  V  V767  1  1.00000000  0.79999980  0.50000020  1
  V  V768  1  1.00000000  0.79999980  0.70000020  1
  V  V769  1  1.00000000  0.79999980  0.90000020  1
  V  V770  1  0.00000000  0.99999980  0.10000020  1
  V  V771  1  1.00000000  0.99999980  0.30000020  1
  V  V772  1  1.00000000  0.99999980  0.50000020  1
  V  V773  1  1.00000000  0.99999980  0.70000020  1
  V  V774  1  1.00000000  0.99999980  0.90000020  1
  V  V775  1  0.20000000  0.19999980  0.10000020  1
  V  V776  1  0.20000000  0.19999980  0.30000020  1
  V  V777  1  0.20000000  0.19999980  0.50000020  1
  V  V778  1  0.20000000  0.19999980  0.70000020  1
  V  V779  1  0.20000000  0.19999980  0.90000020  1
  V  V780  1  0.20000000  0.39999980  0.10000020  1
  V  V781  1  0.20000000  0.39999980  0.30000020  1
  V  V782  1  0.20000000  0.39999980  0.50000020  1
  V  V783  1  0.20000000  0.39999980  0.70000020  1
  V  V784  1  0.20000000  0.39999980  0.90000020  1
  V  V785  1  0.20000000  0.59999980  0.10000020  1
  V  V786  1  0.20000000  0.59999980  0.30000020  1
  V  V787  1  0.20000000  0.59999980  0.50000020  1
  V  V788  1  0.20000000  0.59999980  0.70000020  1
  V  V789  1  0.20000000  0.59999980  0.90000020  1
  V  V790  1  0.20000000  0.79999980  0.10000020  1
  V  V791  1  0.20000000  0.79999980  0.30000020  1
  V  V792  1  0.20000000  0.79999980  0.50000020  1
  V  V793  1  0.20000000  0.79999980  0.70000020  1
  V  V794  1  0.20000000  0.79999980  0.90000020  1
  V  V795  1  0.20000000  0.99999980  0.10000020  1
  V  V796  1  0.20000000  0.99999980  0.30000020  1
  V  V797  1  0.20000000  0.99999980  0.50000020  1
  V  V798  1  0.20000000  0.99999980  0.70000020  1
  V  V799  1  0.20000000  0.99999980  0.90000020  1
  V  V800  1  0.40000000  0.19999980  0.10000020  1
  V  V801  1  0.40000000  0.19999980  0.30000020  1
  V  V802  1  0.40000000  0.19999980  0.50000020  1
  V  V803  1  0.40000000  0.19999980  0.70000020  1
  V  V804  1  0.40000000  0.19999980  0.90000020  1
  V  V805  1  0.40000000  0.39999980  0.10000020  1
  V  V806  1  0.40000000  0.39999980  0.30000020  1
  V  V807  1  0.40000000  0.39999980  0.50000020  1
  V  V808  1  0.40000000  0.39999980  0.70000020  1
  V  V809  1  0.40000000  0.39999980  0.90000020  1
  V  V810  1  0.40000000  0.59999980  0.10000020  1
  V  V811  1  0.40000000  0.59999980  0.30000020  1
  V  V812  1  0.40000000  0.59999980  0.50000020  1
  V  V813  1  0.40000000  0.59999980  0.70000020  1
  V  V814  1  0.40000000  0.59999980  0.90000020  1
  V  V815  1  0.40000000  0.79999980  0.10000020  1
  V  V816  1  0.40000000  0.79999980  0.30000020  1
  V  V817  1  0.40000000  0.79999980  0.50000020  1
  V  V818  1  0.40000000  0.79999980  0.70000020  1
  V  V819  1  0.40000000  0.79999980  0.90000020  1
  V  V820  1  0.40000000  0.99999980  0.10000020  1
  V  V821  1  0.40000000  0.99999980  0.30000020  1
  V  V822  1  0.40000000  0.99999980  0.50000020  1
  V  V823  1  0.40000000  0.99999980  0.70000020  1
  V  V824  1  0.40000000  0.99999980  0.90000020  1
  V  V825  1  0.60000000  0.19999980  0.10000020  1
  V  V826  1  0.60000000  0.19999980  0.30000020  1
  V  V827  1  0.60000000  0.19999980  0.50000020  1
  V  V828  1  0.60000000  0.19999980  0.70000020  1
  V  V829  1  0.60000000  0.19999980  0.90000020  1
  V  V830  1  0.60000000  0.39999980  0.10000020  1
  V  V831  1  0.60000000  0.39999980  0.30000020  1
  V  V832  1  0.60000000  0.39999980  0.50000020  1
  V  V833  1  0.60000000  0.39999980  0.70000020  1
  V  V834  1  0.60000000  0.39999980  0.90000020  1
  V  V835  1  0.60000000  0.59999980  0.10000020  1
  V  V836  1  0.60000000  0.59999980  0.30000020  1
  V  V837  1  0.60000000  0.59999980  0.50000020  1
  V  V838  1  0.60000000  0.59999980  0.70000020  1
  V  V839  1  0.60000000  0.59999980  0.90000020  1
  V  V840  1  0.60000000  0.79999980  0.10000020  1
  V  V841  1  0.60000000  0.79999980  0.30000020  1
  V  V842  1  0.60000000  0.79999980  0.50000020  1
  V  V843  1  0.60000000  0.79999980  0.70000020  1
  V  V844  1  0.60000000  0.79999980  0.90000020  1
  V  V845  1  0.60000000  0.99999980  0.10000020  1
  V  V846  1  0.60000000  0.99999980  0.30000020  1
  V  V847  1  0.60000000  0.99999980  0.50000020  1
  V  V848  1  0.60000000  0.99999980  0.70000020  1
  V  V849  1  0.60000000  0.99999980  0.90000020  1
  V  V850  1  0.80000000  0.19999980  0.10000020  1
  V  V851  1  0.80000000  0.19999980  0.30000020  1
  V  V852  1  0.80000000  0.19999980  0.50000020  1
  V  V853  1  0.80000000  0.19999980  0.70000020  1
  V  V854  1  0.80000000  0.19999980  0.90000020  1
  V  V855  1  0.80000000  0.39999980  0.10000020  1
  V  V856  1  0.80000000  0.39999980  0.30000020  1
  V  V857  1  0.80000000  0.39999980  0.50000020  1
  V  V858  1  0.80000000  0.39999980  0.70000020  1
  V  V859  1  0.80000000  0.39999980  0.90000020  1
  V  V860  1  0.80000000  0.59999980  0.10000020  1
  V  V861  1  0.80000000  0.59999980  0.30000020  1
  V  V862  1  0.80000000  0.59999980  0.50000020  1
  V  V863  1  0.80000000  0.59999980  0.70000020  1
  V  V864  1  0.80000000  0.59999980  0.90000020  1
  V  V865  1  0.80000000  0.79999980  0.10000020  1
  V  V866  1  0.80000000  0.79999980  0.30000020  1
  V  V867  1  0.80000000  0.79999980  0.50000020  1
  V  V868  1  0.80000000  0.79999980  0.70000020  1
  V  V869  1  0.80000000  0.79999980  0.90000020  1
  V  V870  1  0.80000000  0.99999980  0.10000020  1
  V  V871  1  0.80000000  0.99999980  0.30000020  1
  V  V872  1  0.80000000  0.99999980  0.50000020  1
  V  V873  1  0.80000000  0.99999980  0.70000020  1
  V  V874  1  0.80000000  0.99999980  0.90000020  1
  V  V875  1  0.00000080  0.09999980  0.00000100  1
  V  V876  1  0.00000080  0.09999980  0.20000100  1
  V  V877  1  0.00000080  0.09999980  0.40000100  1
  V  V878  1  0.00000080  0.09999980  0.60000100  1
  V  V879  1  0.00000080  0.09999980  0.80000100  1
  V  V880  1  0.00000080  0.29999980  0.00000100  1
  V  V881  1  0.00000080  0.29999980  0.20000100  1
  V  V882  1  0.00000080  0.29999980  0.40000100  1
  V  V883  1  0.00000080  0.29999980  0.60000100  1
  V  V884  1  0.00000080  0.29999980  0.80000100  1
  V  V885  1  0.00000080  0.49999980  0.00000100  1
  V  V886  1  0.00000080  0.49999980  0.20000100  1
  V  V887  1  0.00000080  0.49999980  0.40000100  1
  V  V888  1  0.00000080  0.49999980  0.60000100  1
  V  V889  1  0.00000080  0.49999980  0.80000100  1
  V  V890  1  0.00000080  0.69999980  0.00000100  1
  V  V891  1  0.00000080  0.69999980  0.20000100  1
  V  V892  1  0.00000080  0.69999980  0.40000100  1
  V  V893  1  0.00000080  0.69999980  0.60000100  1
  V  V894  1  0.00000080  0.69999980  0.80000100  1
  V  V895  1  0.00000080  0.89999980  0.00000100  1
  V  V896  1  0.00000080  0.89999980  0.20000100  1
  V  V897  1  0.00000080  0.89999980  0.40000100  1
  V  V898  1  0.00000080  0.89999980  0.60000100  1
  V  V899  1  0.00000080  0.89999980  0.80000100  1
  V  V900  1  0.20000080  0.09999980  0.00000100  1
  V  V901  1  0.20000080  0.09999980  0.20000100  1
  V  V902  1  0.20000080  0.09999980  0.40000100  1
  V  V903  1  0.20000080  0.09999980  0.60000100  1
  V  V904  1  0.20000080  0.09999980  0.80000100  1
  V  V905  1  0.20000080  0.29999980  0.00000100  1
  V  V906  1  0.20000080  0.29999980  0.20000100  1
  V  V907  1  0.20000080  0.29999980  0.40000100  1
  V  V908  1  0.20000080  0.29999980  0.60000100  1
  V  V909  1  0.20000080  0.29999980  0.80000100  1
  V  V910  1  0.20000080  0.49999980  0.00000100  1
  V  V911  1  0.20000080  0.49999980  0.20000100  1
  V  V912  1  0.20000080  0.49999980  0.40000100  1
  V  V913  1  0.20000080  0.49999980  0.60000100  1
  V  V914  1  0.20000080  0.49999980  0.80000100  1
  V  V915  1  0.20000080  0.69999980  0.00000100  1
  V  V916  1  0.20000080  0.69999980  0.20000100  1
  V  V917  1  0.20000080  0.69999980  0.40000100  1
  V  V918  1  0.20000080  0.69999980  0.60000100  1
  V  V919  1  0.20000080  0.69999980  0.80000100  1
  V  V920  1  0.20000080  0.89999980  0.00000100  1
  V  V921  1  0.20000080  0.89999980  0.20000100  1
  V  V922  1  0.20000080  0.89999980  0.40000100  1
  V  V923  1  0.20000080  0.89999980  0.60000100  1
  V  V924  1  0.20000080  0.89999980  0.80000100  1
  V  V925  1  0.40000080  0.09999980  0.00000100  1
  V  V926  1  0.40000080  0.09999980  0.20000100  1
  V  V927  1  0.40000080  0.09999980  0.40000100  1
  V  V928  1  0.40000080  0.09999980  0.60000100  1
  V  V929  1  0.40000080  0.09999980  0.80000100  1
  V  V930  1  0.40000080  0.29999980  0.00000100  1
  V  V931  1  0.40000080  0.29999980  0.20000100  1
  V  V932  1  0.40000080  0.29999980  0.40000100  1
  V  V933  1  0.40000080  0.29999980  0.60000100  1
  V  V934  1  0.40000080  0.29999980  0.80000100  1
  V  V935  1  0.40000080  0.49999980  0.00000100  1
  V  V936  1  0.40000080  0.49999980  0.20000100  1
  V  V937  1  0.40000080  0.49999980  0.40000100  1
  V  V938  1  0.40000080  0.49999980  0.60000100  1
  V  V939  1  0.40000080  0.49999980  0.80000100  1
  V  V940  1  0.40000080  0.69999980  0.00000100  1
  V  V941  1  0.40000080  0.69999980  0.20000100  1
  V  V942  1  0.40000080  0.69999980  0.40000100  1
  V  V943  1  0.40000080  0.69999980  0.60000100  1
  V  V944  1  0.40000080  0.69999980  0.80000100  1
  V  V945  1  0.40000080  0.89999980  0.00000100  1
  V  V946  1  0.40000080  0.89999980  0.20000100  1
  V  V947  1  0.40000080  0.89999980  0.40000100  1
  V  V948  1  0.40000080  0.89999980  0.60000100  1
  V  V949  1  0.40000080  0.89999980  0.80000100  1
  V  V950  1  0.60000080  0.09999980  0.00000100  1
  V  V951  1  0.60000080  0.09999980  0.20000100  1
  V  V952  1  0.60000080  0.09999980  0.40000100  1
  V  V953  1  0.60000080  0.09999980  0.60000100  1
  V  V954  1  0.60000080  0.09999980  0.80000100  1
  V  V955  1  0.60000080  0.29999980  0.00000100  1
  V  V956  1  0.60000080  0.29999980  0.20000100  1
  V  V957  1  0.60000080  0.29999980  0.40000100  1
  V  V958  1  0.60000080  0.29999980  0.60000100  1
  V  V959  1  0.60000080  0.29999980  0.80000100  1
  V  V960  1  0.60000080  0.49999980  0.00000100  1
  V  V961  1  0.60000080  0.49999980  0.20000100  1
  V  V962  1  0.60000080  0.49999980  0.40000100  1
  V  V963  1  0.60000080  0.49999980  0.60000100  1
  V  V964  1  0.60000080  0.49999980  0.80000100  1
  V  V965  1  0.60000080  0.69999980  0.00000100  1
  V  V966  1  0.60000080  0.69999980  0.20000100  1
  V  V967  1  0.60000080  0.69999980  0.40000100  1
  V  V968  1  0.60000080  0.69999980  0.60000100  1
  V  V969  1  0.60000080  0.69999980  0.80000100  1
  V  V970  1  0.60000080  0.89999980  0.00000100  1
  V  V971  1  0.60000080  0.89999980  0.20000100  1
  V  V972  1  0.60000080  0.89999980  0.40000100  1
  V  V973  1  0.60000080  0.89999980  0.60000100  1
  V  V974  1  0.60000080  0.89999980  0.80000100  1
  V  V975  1  0.80000080  0.09999980  0.00000100  1
  V  V976  1  0.80000080  0.09999980  0.20000100  1
  V  V977  1  0.80000080  0.09999980  0.40000100  1
  V  V978  1  0.80000080  0.09999980  0.60000100  1
  V  V979  1  0.80000080  0.09999980  0.80000100  1
  V  V980  1  0.80000080  0.29999980  0.00000100  1
  V  V981  1  0.80000080  0.29999980  0.20000100  1
  V  V982  1  0.80000080  0.29999980  0.40000100  1
  V  V983  1  0.80000080  0.29999980  0.60000100  1
  V  V984  1  0.80000080  0.29999980  0.80000100  1
  V  V985  1  0.80000080  0.49999980  0.00000100  1
  V  V986  1  0.80000080  0.49999980  0.20000100  1
  V  V987  1  0.80000080  0.49999980  0.40000100  1
  V  V988  1  0.80000080  0.49999980  0.60000100  1
  V  V989  1  0.80000080  0.49999980  0.80000100  1
  V  V990  1  0.80000080  0.69999980  0.00000100  1
  V  V991  1  0.80000080  0.69999980  0.20000100  1
  V  V992  1  0.80000080  0.69999980  0.40000100  1
  V  V993  1  0.80000080  0.69999980  0.60000100  1
  V  V994  1  0.80000080  0.69999980  0.80000100  1
  V  V995  1  0.80000080  0.89999980  0.00000100  1
  V  V996  1  0.80000080  0.89999980  0.20000100  1
  V  V997  1  0.80000080  0.89999980  0.40000100  1
  V  V998  1  0.80000080  0.89999980  0.60000100  1
  V  V999  1  0.80000080  0.89999980  0.80000100  1
  V  V1000  1  0.19999980  0.10000000  0.10000000  1
  V  V1001  1  0.19999980  0.10000000  0.30000000  1
  V  V1002  1  0.19999980  0.10000000  0.50000000  1
  V  V1003  1  0.19999980  0.10000000  0.70000000  1
  V  V1004  1  0.19999980  0.10000000  0.90000000  1
  V  V1005  1  0.19999980  0.30000000  0.10000000  1
  V  V1006  1  0.19999980  0.30000000  0.30000000  1
  V  V1007  1  0.19999980  0.30000000  0.50000000  1
  V  V1008  1  0.19999980  0.30000000  0.70000000  1
  V  V1009  1  0.19999980  0.30000000  0.90000000  1
  V  V1010  1  0.19999980  0.50000000  0.10000000  1
  V  V1011  1  0.19999980  0.50000000  0.30000000  1
  V  V1012  1  0.19999980  0.50000000  0.50000000  1
  V  V1013  1  0.19999980  0.50000000  0.70000000  1
  V  V1014  1  0.19999980  0.50000000  0.90000000  1
  V  V1015  1  0.19999980  0.70000000  0.10000000  1
  V  V1016  1  0.19999980  0.70000000  0.30000000  1
  V  V1017  1  0.19999980  0.70000000  0.50000000  1
  V  V1018  1  0.19999980  0.70000000  0.70000000  1
  V  V1019  1  0.19999980  0.70000000  0.90000000  1
  V  V1020  1  0.19999980  0.90000000  0.10000000  1
  V  V1021  1  0.19999980  0.90000000  0.30000000  1
  V  V1022  1  0.19999980  0.90000000  0.50000000  1
  V  V1023  1  0.19999980  0.90000000  0.70000000  1
  V  V1024  1  0.19999980  0.90000000  0.90000000  1
  V  V1025  1  0.39999980  0.10000000  0.10000000  1
  V  V1026  1  0.39999980  0.10000000  0.30000000  1
  V  V1027  1  0.39999980  0.10000000  0.50000000  1
  V  V1028  1  0.39999980  0.10000000  0.70000000  1
  V  V1029  1  0.39999980  0.10000000  0.90000000  1
  V  V1030  1  0.39999980  0.30000000  0.10000000  1
  V  V1031  1  0.39999980  0.30000000  0.30000000  1
  V  V1032  1  0.39999980  0.30000000  0.50000000  1
  V  V1033  1  0.39999980  0.30000000  0.70000000  1
  V  V1034  1  0.39999980  0.30000000  0.90000000  1
  V  V1035  1  0.39999980  0.50000000  0.10000000  1
  V  V1036  1  0.39999980  0.50000000  0.30000000  1
  V  V1037  1  0.39999980  0.50000000  0.50000000  1
  V  V1038  1  0.39999980  0.50000000  0.70000000  1
  V  V1039  1  0.39999980  0.50000000  0.90000000  1
  V  V1040  1  0.39999980  0.70000000  0.10000000  1
  V  V1041  1  0.39999980  0.70000000  0.30000000  1
  V  V1042  1  0.39999980  0.70000000  0.50000000  1
  V  V1043  1  0.39999980  0.70000000  0.70000000  1
  V  V1044  1  0.39999980  0.70000000  0.90000000  1
  V  V1045  1  0.39999980  0.90000000  0.10000000  1
  V  V1046  1  0.39999980  0.90000000  0.30000000  1
  V  V1047  1  0.39999980  0.90000000  0.50000000  1
  V  V1048  1  0.39999980  0.90000000  0.70000000  1
  V  V1049  1  0.39999980  0.90000000  0.90000000  1
  V  V1050  1  0.59999980  0.10000000  0.10000000  1
  V  V1051  1  0.59999980  0.10000000  0.30000000  1
  V  V1052  1  0.59999980  0.10000000  0.50000000  1
  V  V1053  1  0.59999980  0.10000000  0.70000000  1
  V  V1054  1  0.59999980  0.10000000  0.90000000  1
  V  V1055  1  0.59999980  0.30000000  0.10000000  1
  V  V1056  1  0.59999980  0.30000000  0.30000000  1
  V  V1057  1  0.59999980  0.30000000  0.50000000  1
  V  V1058  1  0.59999980  0.30000000  0.70000000  1
  V  V1059  1  0.59999980  0.30000000  0.90000000  1
  V  V1060  1  0.59999980  0.50000000  0.10000000  1
  V  V1061  1  0.59999980  0.50000000  0.30000000  1
  V  V1062  1  0.59999980  0.50000000  0.50000000  1
  V  V1063  1  0.59999980  0.50000000  0.70000000  1
  V  V1064  1  0.59999980  0.50000000  0.90000000  1
  V  V1065  1  0.59999980  0.70000000  0.10000000  1
  V  V1066  1  0.59999980  0.70000000  0.30000000  1
  V  V1067  1  0.59999980  0.70000000  0.50000000  1
  V  V1068  1  0.59999980  0.70000000  0.70000000  1
  V  V1069  1  0.59999980  0.70000000  0.90000000  1
  V  V1070  1  0.59999980  0.90000000  0.10000000  1
  V  V1071  1  0.59999980  0.90000000  0.30000000  1
  V  V1072  1  0.59999980  0.90000000  0.50000000  1
  V  V1073  1  0.59999980  0.90000000  0.70000000  1
  V  V1074  1  0.59999980  0.90000000  0.90000000  1
  V  V1075  1  0.79999980  0.10000000  0.10000000  1
  V  V1076  1  0.79999980  0.10000000  0.30000000  1
  V  V1077  1  0.79999980  0.10000000  0.50000000  1
  V  V1078  1  0.79999980  0.10000000  0.70000000  1
  V  V1079  1  0.79999980  0.10000000  0.90000000  1
  V  V1080  1  0.79999980  0.30000000  0.10000000  1
  V  V1081  1  0.79999980  0.30000000  0.30000000  1
  V  V1082  1  0.79999980  0.30000000  0.50000000  1
  V  V1083  1  0.79999980  0.30000000  0.70000000  1
  V  V1084  1  0.79999980  0.30000000  0.90000000  1
  V  V1085  1  0.79999980  0.50000000  0.10000000  1
  V  V1086  1  0.79999980  0.50000000  0.30000000  1
  V  V1087  1  0.79999980  0.50000000  0.50000000  1
  V  V1088  1  0.79999980  0.50000000  0.70000000  1
  V  V1089  1  0.79999980  0.50000000  0.90000000  1
  V  V1090  1  0.79999980  0.70000000  0.10000000  1
  V  V1091  1  0.79999980  0.70000000  0.30000000  1
  V  V1092  1  0.79999980  0.70000000  0.50000000  1
  V  V1093  1  0.79999980  0.70000000  0.70000000  1
  V  V1094  1  0.79999980  0.70000000  0.90000000  1
  V  V1095  1  0.79999980  0.90000000  0.10000000  1
  V  V1096  1  0.79999980  0.90000000  0.30000000  1
  V  V1097  1  0.79999980  0.90000000  0.50000000  1
  V  V1098  1  0.79999980  0.90000000  0.70000000  1
  V  V1099  1  0.79999980  0.90000000  0.90000000  1
  V  V1100  1  0.99999980  0.10000000  0.10000000  1
  V  V1101  1  0.99999980  0.10000000  0.30000000  1
  V  V1102  1  0.99999980  0.10000000  0.50000000  1
  V  V1103  1  0.99999980  0.10000000  0.70000000  1
  V  V1104  1  0.99999980  0.10000000  0.90000000  1
  V  V1105  1  0.99999980  0.30000000  0.10000000  1
  V  V1106  1  0.99999980  0.30000000  0.30000000  1
  V  V1107  1  0.99999980  0.30000000  0.50000000  1
  V  V1108  1  0.99999980  0.30000000  0.70000000  1
  V  V1109  1  0.99999980  0.30000000  0.90000000  1
  V  V1110  1  0.99999980  0.50000000  0.10000000  1
  V  V1111  1  0.99999980  0.50000000  0.30000000  1
  V  V1112  1  0.99999980  0.50000000  0.50000000  1
  V  V1113  1  0.99999980  0.50000000  0.70000000  1
  V  V1114  1  0.99999980  0.50000000  0.90000000  1
  V  V1115  1  0.99999980  0.70000000  0.10000000  1
  V  V1116  1  0.99999980  0.70000000  0.30000000  1
  V  V1117  1  0.99999980  0.70000000  0.50000000  1
  V  V1118  1  0.99999980  0.70000000  0.70000000  1
  V  V1119  1  0.99999980  0.70000000  0.90000000  1
  V  V1120  1  0.99999980  0.90000000  0.10000000  1
  V  V1121  1  0.99999980  0.90000000  0.30000000  1
  V  V1122  1  0.99999980  0.90000000  0.50000000  1
  V  V1123  1  0.99999980  0.90000000  0.70000000  1
  V  V1124  1  0.99999980  0.90000000  0.90000000  1
  V  V1125  1  0.10000040  0.10000000  0.19999960  1
  V  V1126  1  0.10000040  0.10000000  0.39999960  1
  V  V1127  1  0.10000040  0.10000000  0.59999960  1
  V  V1128  1  0.10000040  0.10000000  0.79999960  1
  V  V1129  1  0.10000040  0.10000000  0.99999960  1
  V  V1130  1  0.10000040  0.30000000  0.19999960  1
  V  V1131  1  0.10000040  0.30000000  0.39999960  1
  V  V1132  1  0.10000040  0.30000000  0.59999960  1
  V  V1133  1  0.10000040  0.30000000  0.79999960  1
  V  V1134  1  0.10000040  0.30000000  0.99999960  1
  V  V1135  1  0.10000040  0.50000000  0.19999960  1
  V  V1136  1  0.10000040  0.50000000  0.39999960  1
  V  V1137  1  0.10000040  0.50000000  0.59999960  1
  V  V1138  1  0.10000040  0.50000000  0.79999960  1
  V  V1139  1  0.10000040  0.50000000  0.99999960  1
  V  V1140  1  0.10000040  0.70000000  0.19999960  1
  V  V1141  1  0.10000040  0.70000000  0.39999960  1
  V  V1142  1  0.10000040  0.70000000  0.59999960  1
  V  V1143  1  0.10000040  0.70000000  0.79999960  1
  V  V1144  1  0.10000040  0.70000000  0.99999960  1
  V  V1145  1  0.10000040  0.90000000  0.19999960  1
  V  V1146  1  0.10000040  0.90000000  0.39999960  1
  V  V1147  1  0.10000040  0.90000000  0.59999960  1
  V  V1148  1  0.10000040  0.90000000  0.79999960  1
  V  V1149  1  0.10000040  0.90000000  0.99999960  1
  V  V1150  1  0.30000040  0.10000000  0.19999960  1
  V  V1151  1  0.30000040  0.10000000  0.39999960  1
  V  V1152  1  0.30000040  0.10000000  0.59999960  1
  V  V1153  1  0.30000040  0.10000000  0.79999960  1
  V  V1154  1  0.30000040  0.10000000  0.99999960  1
  V  V1155  1  0.30000040  0.30000000  0.19999960  1
  V  V1156  1  0.30000040  0.30000000  0.39999960  1
  V  V1157  1  0.30000040  0.30000000  0.59999960  1
  V  V1158  1  0.30000040  0.30000000  0.79999960  1
  V  V1159  1  0.30000040  0.30000000  0.99999960  1
  V  V1160  1  0.30000040  0.50000000  0.19999960  1
  V  V1161  1  0.30000040  0.50000000  0.39999960  1
  V  V1162  1  0.30000040  0.50000000  0.59999960  1
  V  V1163  1  0.30000040  0.50000000  0.79999960  1
  V  V1164  1  0.30000040  0.50000000  0.99999960  1
  V  V1165  1  0.30000040  0.70000000  0.19999960  1
  V  V1166  1  0.30000040  0.70000000  0.39999960  1
  V  V1167  1  0.30000040  0.70000000  0.59999960  1
  V  V1168  1  0.30000040  0.70000000  0.79999960  1
  V  V1169  1  0.30000040  0.70000000  0.99999960  1
  V  V1170  1  0.30000040  0.90000000  0.19999960  1
  V  V1171  1  0.30000040  0.90000000  0.39999960  1
  V  V1172  1  0.30000040  0.90000000  0.59999960  1
  V  V1173  1  0.30000040  0.90000000  0.79999960  1
  V  V1174  1  0.30000040  0.90000000  0.99999960  1
  V  V1175  1  0.50000040  0.10000000  0.19999960  1
  V  V1176  1  0.50000040  0.10000000  0.39999960  1
  V  V1177  1  0.50000040  0.10000000  0.59999960  1
  V  V1178  1  0.50000040  0.10000000  0.79999960  1
  V  V1179  1  0.50000040  0.10000000  0.99999960  1
  V  V1180  1  0.50000040  0.30000000  0.19999960  1
  V  V1181  1  0.50000040  0.30000000  0.39999960  1
  V  V1182  1  0.50000040  0.30000000  0.59999960  1
  V  V1183  1  0.50000040  0.30000000  0.79999960  1
  V  V1184  1  0.50000040  0.30000000  0.99999960  1
  V  V1185  1  0.50000040  0.50000000  0.19999960  1
  V  V1186  1  0.50000040  0.50000000  0.39999960  1
  V  V1187  1  0.50000040  0.50000000  0.59999960  1
  V  V1188  1  0.50000040  0.50000000  0.79999960  1
  V  V1189  1  0.50000040  0.50000000  0.99999960  1
  V  V1190  1  0.50000040  0.70000000  0.19999960  1
  V  V1191  1  0.50000040  0.70000000  0.39999960  1
  V  V1192  1  0.50000040  0.70000000  0.59999960  1
  V  V1193  1  0.50000040  0.70000000  0.79999960  1
  V  V1194  1  0.50000040  0.70000000  0.99999960  1
  V  V1195  1  0.50000040  0.90000000  0.19999960  1
  V  V1196  1  0.50000040  0.90000000  0.39999960  1
  V  V1197  1  0.50000040  0.90000000  0.59999960  1
  V  V1198  1  0.50000040  0.90000000  0.79999960  1
  V  V1199  1  0.50000040  0.90000000  0.99999960  1
  V  V1200  1  0.70000040  0.10000000  0.19999960  1
  V  V1201  1  0.70000040  0.10000000  0.39999960  1
  V  V1202  1  0.70000040  0.10000000  0.59999960  1
  V  V1203  1  0.70000040  0.10000000  0.79999960  1
  V  V1204  1  0.70000040  0.10000000  0.99999960  1
  V  V1205  1  0.70000040  0.30000000  0.19999960  1
  V  V1206  1  0.70000040  0.30000000  0.39999960  1
  V  V1207  1  0.70000040  0.30000000  0.59999960  1
  V  V1208  1  0.70000040  0.30000000  0.79999960  1
  V  V1209  1  0.70000040  0.30000000  0.99999960  1
  V  V1210  1  0.70000040  0.50000000  0.19999960  1
  V  V1211  1  0.70000040  0.50000000  0.39999960  1
  V  V1212  1  0.70000040  0.50000000  0.59999960  1
  V  V1213  1  0.70000040  0.50000000  0.79999960  1
  V  V1214  1  0.70000040  0.50000000  0.99999960  1
  V  V1215  1  0.70000040  0.70000000  0.19999960  1
  V  V1216  1  0.70000040  0.70000000  0.39999960  1
  V  V1217  1  0.70000040  0.70000000  0.59999960  1
  V  V1218  1  0.70000040  0.70000000  0.79999960  1
  V  V1219  1  0.70000040  0.70000000  0.99999960  1
  V  V1220  1  0.70000040  0.90000000  0.19999960  1
  V  V1221  1  0.70000040  0.90000000  0.39999960  1
  V  V1222  1  0.70000040  0.90000000  0.59999960  1
  V  V1223  1  0.70000040  0.90000000  0.79999960  1
  V  V1224  1  0.70000040  0.90000000  0.99999960  1
  V  V1225  1  0.90000040  0.10000000  0.19999960  1
  V  V1226  1  0.90000040  0.10000000  0.39999960  1
  V  V1227  1  0.90000040  0.10000000  0.59999960  1
  V  V1228  1  0.90000040  0.10000000  0.79999960  1
  V  V1229  1  0.90000040  0.10000000  0.99999960  1
  V  V1230  1  0.90000040  0.30000000  0.19999960  1
  V  V1231  1  0.90000040  0.30000000  0.39999960  1
  V  V1232  1  0.90000040  0.30000000  0.59999960  1
  V  V1233  1  0.90000040  0.30000000  0.79999960  1
  V  V1234  1  0.90000040  0.30000000  0.99999960  1
  V  V1235  1  0.90000040  0.50000000  0.19999960  1
  V  V1236  1  0.90000040  0.50000000  0.39999960  1
  V  V1237  1  0.90000040  0.50000000  0.59999960  1
  V  V1238  1  0.90000040  0.50000000  0.79999960  1
  V  V1239  1  0.90000040  0.50000000  0.99999960  1
  V  V1240  1  0.90000040  0.70000000  0.19999960  1
  V  V1241  1  0.90000040  0.70000000  0.39999960  1
  V  V1242  1  0.90000040  0.70000000  0.59999960  1
  V  V1243  1  0.90000040  0.70000000  0.79999960  1
  V  V1244  1  0.90000040  0.70000000  0.99999960  1
  V  V1245  1  0.90000040  0.90000000  0.19999960  1
  V  V1246  1  0.90000040  0.90000000  0.39999960  1
  V  V1247  1  0.90000040  0.90000000  0.59999960  1
  V  V1248  1  0.90000040  0.90000000  0.79999960  1
  V  V1249  1  0.90000040  0.90000000  0.99999960  1
  Sb  Sb1250  1  0.05001040  0.05001280  0.05001180  1
  Sb  Sb1251  1  0.05001040  0.05001280  0.25001180  1
  Sb  Sb1252  1  0.05001040  0.05001280  0.45001180  1
  Sb  Sb1253  1  0.05001040  0.05001280  0.65001180  1
  Sb  Sb1254  1  0.05001040  0.05001280  0.85001180  1
  Sb  Sb1255  1  0.05001040  0.25001280  0.05001180  1
  Sb  Sb1256  1  0.05001040  0.25001280  0.25001180  1
  Sb  Sb1257  1  0.05001040  0.25001280  0.45001180  1
  Sb  Sb1258  1  0.05001040  0.25001280  0.65001180  1
  Sb  Sb1259  1  0.05001040  0.25001280  0.85001180  1
  Sb  Sb1260  1  0.05001040  0.45001280  0.05001180  1
  Sb  Sb1261  1  0.05001040  0.45001280  0.25001180  1
  Sb  Sb1262  1  0.05001040  0.45001280  0.45001180  1
  Sb  Sb1263  1  0.05001040  0.45001280  0.65001180  1
  Sb  Sb1264  1  0.05001040  0.45001280  0.85001180  1
  Sb  Sb1265  1  0.05001040  0.65001280  0.05001180  1
  Sb  Sb1266  1  0.05001040  0.65001280  0.25001180  1
  Sb  Sb1267  1  0.05001040  0.65001280  0.45001180  1
  Sb  Sb1268  1  0.05001040  0.65001280  0.65001180  1
  Sb  Sb1269  1  0.05001040  0.65001280  0.85001180  1
  Sb  Sb1270  1  0.05001040  0.85001280  0.05001180  1
  Sb  Sb1271  1  0.05001040  0.85001280  0.25001180  1
  Sb  Sb1272  1  0.05001040  0.85001280  0.45001180  1
  Sb  Sb1273  1  0.05001040  0.85001280  0.65001180  1
  Sb  Sb1274  1  0.05001040  0.85001280  0.85001180  1
  Sb  Sb1275  1  0.25001040  0.05001280  0.05001180  1
  Sb  Sb1276  1  0.25001040  0.05001280  0.25001180  1
  Sb  Sb1277  1  0.25001040  0.05001280  0.45001180  1
  Sb  Sb1278  1  0.25001040  0.05001280  0.65001180  1
  Sb  Sb1279  1  0.25001040  0.05001280  0.85001180  1
  Sb  Sb1280  1  0.25001040  0.25001280  0.05001180  1
  Sb  Sb1281  1  0.25001040  0.25001280  0.25001180  1
  Sb  Sb1282  1  0.25001040  0.25001280  0.45001180  1
  Sb  Sb1283  1  0.25001040  0.25001280  0.65001180  1
  Sb  Sb1284  1  0.25001040  0.25001280  0.85001180  1
  Sb  Sb1285  1  0.25001040  0.45001280  0.05001180  1
  Sb  Sb1286  1  0.25001040  0.45001280  0.25001180  1
  Sb  Sb1287  1  0.25001040  0.45001280  0.45001180  1
  Sb  Sb1288  1  0.25001040  0.45001280  0.65001180  1
  Sb  Sb1289  1  0.25001040  0.45001280  0.85001180  1
  Sb  Sb1290  1  0.25001040  0.65001280  0.05001180  1
  Sb  Sb1291  1  0.25001040  0.65001280  0.25001180  1
  Sb  Sb1292  1  0.25001040  0.65001280  0.45001180  1
  Sb  Sb1293  1  0.25001040  0.65001280  0.65001180  1
  Sb  Sb1294  1  0.25001040  0.65001280  0.85001180  1
  Sb  Sb1295  1  0.25001040  0.85001280  0.05001180  1
  Sb  Sb1296  1  0.25001040  0.85001280  0.25001180  1
  Sb  Sb1297  1  0.25001040  0.85001280  0.45001180  1
  Sb  Sb1298  1  0.25001040  0.85001280  0.65001180  1
  Sb  Sb1299  1  0.25001040  0.85001280  0.85001180  1
  Sb  Sb1300  1  0.45001040  0.05001280  0.05001180  1
  Sb  Sb1301  1  0.45001040  0.05001280  0.25001180  1
  Sb  Sb1302  1  0.45001040  0.05001280  0.45001180  1
  Sb  Sb1303  1  0.45001040  0.05001280  0.65001180  1
  Sb  Sb1304  1  0.45001040  0.05001280  0.85001180  1
  Sb  Sb1305  1  0.45001040  0.25001280  0.05001180  1
  Sb  Sb1306  1  0.45001040  0.25001280  0.25001180  1
  Sb  Sb1307  1  0.45001040  0.25001280  0.45001180  1
  Sb  Sb1308  1  0.45001040  0.25001280  0.65001180  1
  Sb  Sb1309  1  0.45001040  0.25001280  0.85001180  1
  Sb  Sb1310  1  0.45001040  0.45001280  0.05001180  1
  Sb  Sb1311  1  0.45001040  0.45001280  0.25001180  1
  Sb  Sb1312  1  0.45001040  0.45001280  0.45001180  1
  Sb  Sb1313  1  0.45001040  0.45001280  0.65001180  1
  Sb  Sb1314  1  0.45001040  0.45001280  0.85001180  1
  Sb  Sb1315  1  0.45001040  0.65001280  0.05001180  1
  Sb  Sb1316  1  0.45001040  0.65001280  0.25001180  1
  Sb  Sb1317  1  0.45001040  0.65001280  0.45001180  1
  Sb  Sb1318  1  0.45001040  0.65001280  0.65001180  1
  Sb  Sb1319  1  0.45001040  0.65001280  0.85001180  1
  Sb  Sb1320  1  0.45001040  0.85001280  0.05001180  1
  Sb  Sb1321  1  0.45001040  0.85001280  0.25001180  1
  Sb  Sb1322  1  0.45001040  0.85001280  0.45001180  1
  Sb  Sb1323  1  0.45001040  0.85001280  0.65001180  1
  Sb  Sb1324  1  0.45001040  0.85001280  0.85001180  1
  Sb  Sb1325  1  0.65001040  0.05001280  0.05001180  1
  Sb  Sb1326  1  0.65001040  0.05001280  0.25001180  1
  Sb  Sb1327  1  0.65001040  0.05001280  0.45001180  1
  Sb  Sb1328  1  0.65001040  0.05001280  0.65001180  1
  Sb  Sb1329  1  0.65001040  0.05001280  0.85001180  1
  Sb  Sb1330  1  0.65001040  0.25001280  0.05001180  1
  Sb  Sb1331  1  0.65001040  0.25001280  0.25001180  1
  Sb  Sb1332  1  0.65001040  0.25001280  0.45001180  1
  Sb  Sb1333  1  0.65001040  0.25001280  0.65001180  1
  Sb  Sb1334  1  0.65001040  0.25001280  0.85001180  1
  Sb  Sb1335  1  0.65001040  0.45001280  0.05001180  1
  Sb  Sb1336  1  0.65001040  0.45001280  0.25001180  1
  Sb  Sb1337  1  0.65001040  0.45001280  0.45001180  1
  Sb  Sb1338  1  0.65001040  0.45001280  0.65001180  1
  Sb  Sb1339  1  0.65001040  0.45001280  0.85001180  1
  Sb  Sb1340  1  0.65001040  0.65001280  0.05001180  1
  Sb  Sb1341  1  0.65001040  0.65001280  0.25001180  1
  Sb  Sb1342  1  0.65001040  0.65001280  0.45001180  1
  Sb  Sb1343  1  0.65001040  0.65001280  0.65001180  1
  Sb  Sb1344  1  0.65001040  0.65001280  0.85001180  1
  Sb  Sb1345  1  0.65001040  0.85001280  0.05001180  1
  Sb  Sb1346  1  0.65001040  0.85001280  0.25001180  1
  Sb  Sb1347  1  0.65001040  0.85001280  0.45001180  1
  Sb  Sb1348  1  0.65001040  0.85001280  0.65001180  1
  Sb  Sb1349  1  0.65001040  0.85001280  0.85001180  1
  Sb  Sb1350  1  0.85001040  0.05001280  0.05001180  1
  Sb  Sb1351  1  0.85001040  0.05001280  0.25001180  1
  Sb  Sb1352  1  0.85001040  0.05001280  0.45001180  1
  Sb  Sb1353  1  0.85001040  0.05001280  0.65001180  1
  Sb  Sb1354  1  0.85001040  0.05001280  0.85001180  1
  Sb  Sb1355  1  0.85001040  0.25001280  0.05001180  1
  Sb  Sb1356  1  0.85001040  0.25001280  0.25001180  1
  Sb  Sb1357  1  0.85001040  0.25001280  0.45001180  1
  Sb  Sb1358  1  0.85001040  0.25001280  0.65001180  1
  Sb  Sb1359  1  0.85001040  0.25001280  0.85001180  1
  Sb  Sb1360  1  0.85001040  0.45001280  0.05001180  1
  Sb  Sb1361  1  0.85001040  0.45001280  0.25001180  1
  Sb  Sb1362  1  0.85001040  0.45001280  0.45001180  1
  Sb  Sb1363  1  0.85001040  0.45001280  0.65001180  1
  Sb  Sb1364  1  0.85001040  0.45001280  0.85001180  1
  Sb  Sb1365  1  0.85001040  0.65001280  0.05001180  1
  Sb  Sb1366  1  0.85001040  0.65001280  0.25001180  1
  Sb  Sb1367  1  0.85001040  0.65001280  0.45001180  1
  Sb  Sb1368  1  0.85001040  0.65001280  0.65001180  1
  Sb  Sb1369  1  0.85001040  0.65001280  0.85001180  1
  Sb  Sb1370  1  0.85001040  0.85001280  0.05001180  1
  Sb  Sb1371  1  0.85001040  0.85001280  0.25001180  1
  Sb  Sb1372  1  0.85001040  0.85001280  0.45001180  1
  Sb  Sb1373  1  0.85001040  0.85001280  0.65001180  1
  Sb  Sb1374  1  0.85001040  0.85001280  0.85001180  1
  Sb  Sb1375  1  0.14998960  0.14998720  0.14998820  1
  Sb  Sb1376  1  0.14998960  0.14998720  0.34998820  1
  Sb  Sb1377  1  0.14998960  0.14998720  0.54998820  1
  Sb  Sb1378  1  0.14998960  0.14998720  0.74998820  1
  Sb  Sb1379  1  0.14998960  0.14998720  0.94998820  1
  Sb  Sb1380  1  0.14998960  0.34998720  0.14998820  1
  Sb  Sb1381  1  0.14998960  0.34998720  0.34998820  1
  Sb  Sb1382  1  0.14998960  0.34998720  0.54998820  1
  Sb  Sb1383  1  0.14998960  0.34998720  0.74998820  1
  Sb  Sb1384  1  0.14998960  0.34998720  0.94998820  1
  Sb  Sb1385  1  0.14998960  0.54998720  0.14998820  1
  Sb  Sb1386  1  0.14998960  0.54998720  0.34998820  1
  Sb  Sb1387  1  0.14998960  0.54998720  0.54998820  1
  Sb  Sb1388  1  0.14998960  0.54998720  0.74998820  1
  Sb  Sb1389  1  0.14998960  0.54998720  0.94998820  1
  Sb  Sb1390  1  0.14998960  0.74998720  0.14998820  1
  Sb  Sb1391  1  0.14998960  0.74998720  0.34998820  1
  Sb  Sb1392  1  0.14998960  0.74998720  0.54998820  1
  Sb  Sb1393  1  0.14998960  0.74998720  0.74998820  1
  Sb  Sb1394  1  0.14998960  0.74998720  0.94998820  1
  Sb  Sb1395  1  0.14998960  0.94998720  0.14998820  1
  Sb  Sb1396  1  0.14998960  0.94998720  0.34998820  1
  Sb  Sb1397  1  0.14998960  0.94998720  0.54998820  1
  Sb  Sb1398  1  0.14998960  0.94998720  0.74998820  1
  Sb  Sb1399  1  0.14998960  0.94998720  0.94998820  1
  Sb  Sb1400  1  0.34998960  0.14998720  0.14998820  1
  Sb  Sb1401  1  0.34998960  0.14998720  0.34998820  1
  Sb  Sb1402  1  0.34998960  0.14998720  0.54998820  1
  Sb  Sb1403  1  0.34998960  0.14998720  0.74998820  1
  Sb  Sb1404  1  0.34998960  0.14998720  0.94998820  1
  Sb  Sb1405  1  0.34998960  0.34998720  0.14998820  1
  Sb  Sb1406  1  0.34998960  0.34998720  0.34998820  1
  Sb  Sb1407  1  0.34998960  0.34998720  0.54998820  1
  Sb  Sb1408  1  0.34998960  0.34998720  0.74998820  1
  Sb  Sb1409  1  0.34998960  0.34998720  0.94998820  1
  Sb  Sb1410  1  0.34998960  0.54998720  0.14998820  1
  Sb  Sb1411  1  0.34998960  0.54998720  0.34998820  1
  Sb  Sb1412  1  0.34998960  0.54998720  0.54998820  1
  Sb  Sb1413  1  0.34998960  0.54998720  0.74998820  1
  Sb  Sb1414  1  0.34998960  0.54998720  0.94998820  1
  Sb  Sb1415  1  0.34998960  0.74998720  0.14998820  1
  Sb  Sb1416  1  0.34998960  0.74998720  0.34998820  1
  Sb  Sb1417  1  0.34998960  0.74998720  0.54998820  1
  Sb  Sb1418  1  0.34998960  0.74998720  0.74998820  1
  Sb  Sb1419  1  0.34998960  0.74998720  0.94998820  1
  Sb  Sb1420  1  0.34998960  0.94998720  0.14998820  1
  Sb  Sb1421  1  0.34998960  0.94998720  0.34998820  1
  Sb  Sb1422  1  0.34998960  0.94998720  0.54998820  1
  Sb  Sb1423  1  0.34998960  0.94998720  0.74998820  1
  Sb  Sb1424  1  0.34998960  0.94998720  0.94998820  1
  Sb  Sb1425  1  0.54998960  0.14998720  0.14998820  1
  Sb  Sb1426  1  0.54998960  0.14998720  0.34998820  1
  Sb  Sb1427  1  0.54998960  0.14998720  0.54998820  1
  Sb  Sb1428  1  0.54998960  0.14998720  0.74998820  1
  Sb  Sb1429  1  0.54998960  0.14998720  0.94998820  1
  Sb  Sb1430  1  0.54998960  0.34998720  0.14998820  1
  Sb  Sb1431  1  0.54998960  0.34998720  0.34998820  1
  Sb  Sb1432  1  0.54998960  0.34998720  0.54998820  1
  Sb  Sb1433  1  0.54998960  0.34998720  0.74998820  1
  Sb  Sb1434  1  0.54998960  0.34998720  0.94998820  1
  Sb  Sb1435  1  0.54998960  0.54998720  0.14998820  1
  Sb  Sb1436  1  0.54998960  0.54998720  0.34998820  1
  Sb  Sb1437  1  0.54998960  0.54998720  0.54998820  1
  Sb  Sb1438  1  0.54998960  0.54998720  0.74998820  1
  Sb  Sb1439  1  0.54998960  0.54998720  0.94998820  1
  Sb  Sb1440  1  0.54998960  0.74998720  0.14998820  1
  Sb  Sb1441  1  0.54998960  0.74998720  0.34998820  1
  Sb  Sb1442  1  0.54998960  0.74998720  0.54998820  1
  Sb  Sb1443  1  0.54998960  0.74998720  0.74998820  1
  Sb  Sb1444  1  0.54998960  0.74998720  0.94998820  1
  Sb  Sb1445  1  0.54998960  0.94998720  0.14998820  1
  Sb  Sb1446  1  0.54998960  0.94998720  0.34998820  1
  Sb  Sb1447  1  0.54998960  0.94998720  0.54998820  1
  Sb  Sb1448  1  0.54998960  0.94998720  0.74998820  1
  Sb  Sb1449  1  0.54998960  0.94998720  0.94998820  1
  Sb  Sb1450  1  0.74998960  0.14998720  0.14998820  1
  Sb  Sb1451  1  0.74998960  0.14998720  0.34998820  1
  Sb  Sb1452  1  0.74998960  0.14998720  0.54998820  1
  Sb  Sb1453  1  0.74998960  0.14998720  0.74998820  1
  Sb  Sb1454  1  0.74998960  0.14998720  0.94998820  1
  Sb  Sb1455  1  0.74998960  0.34998720  0.14998820  1
  Sb  Sb1456  1  0.74998960  0.34998720  0.34998820  1
  Sb  Sb1457  1  0.74998960  0.34998720  0.54998820  1
  Sb  Sb1458  1  0.74998960  0.34998720  0.74998820  1
  Sb  Sb1459  1  0.74998960  0.34998720  0.94998820  1
  Sb  Sb1460  1  0.74998960  0.54998720  0.14998820  1
  Sb  Sb1461  1  0.74998960  0.54998720  0.34998820  1
  Sb  Sb1462  1  0.74998960  0.54998720  0.54998820  1
  Sb  Sb1463  1  0.74998960  0.54998720  0.74998820  1
  Sb  Sb1464  1  0.74998960  0.54998720  0.94998820  1
  Sb  Sb1465  1  0.74998960  0.74998720  0.14998820  1
  Sb  Sb1466  1  0.74998960  0.74998720  0.34998820  1
  Sb  Sb1467  1  0.74998960  0.74998720  0.54998820  1
  Sb  Sb1468  1  0.74998960  0.74998720  0.74998820  1
  Sb  Sb1469  1  0.74998960  0.74998720  0.94998820  1
  Sb  Sb1470  1  0.74998960  0.94998720  0.14998820  1
  Sb  Sb1471  1  0.74998960  0.94998720  0.34998820  1
  Sb  Sb1472  1  0.74998960  0.94998720  0.54998820  1
  Sb  Sb1473  1  0.74998960  0.94998720  0.74998820  1
  Sb  Sb1474  1  0.74998960  0.94998720  0.94998820  1
  Sb  Sb1475  1  0.94998960  0.14998720  0.14998820  1
  Sb  Sb1476  1  0.94998960  0.14998720  0.34998820  1
  Sb  Sb1477  1  0.94998960  0.14998720  0.54998820  1
  Sb  Sb1478  1  0.94998960  0.14998720  0.74998820  1
  Sb  Sb1479  1  0.94998960  0.14998720  0.94998820  1
  Sb  Sb1480  1  0.94998960  0.34998720  0.14998820  1
  Sb  Sb1481  1  0.94998960  0.34998720  0.34998820  1
  Sb  Sb1482  1  0.94998960  0.34998720  0.54998820  1
  Sb  Sb1483  1  0.94998960  0.34998720  0.74998820  1
  Sb  Sb1484  1  0.94998960  0.34998720  0.94998820  1
  Sb  Sb1485  1  0.94998960  0.54998720  0.14998820  1
  Sb  Sb1486  1  0.94998960  0.54998720  0.34998820  1
  Sb  Sb1487  1  0.94998960  0.54998720  0.54998820  1
  Sb  Sb1488  1  0.94998960  0.54998720  0.74998820  1
  Sb  Sb1489  1  0.94998960  0.54998720  0.94998820  1
  Sb  Sb1490  1  0.94998960  0.74998720  0.14998820  1
  Sb  Sb1491  1  0.94998960  0.74998720  0.34998820  1
  Sb  Sb1492  1  0.94998960  0.74998720  0.54998820  1
  Sb  Sb1493  1  0.94998960  0.74998720  0.74998820  1
  Sb  Sb1494  1  0.94998960  0.74998720  0.94998820  1
  Sb  Sb1495  1  0.94998960  0.94998720  0.14998820  1
  Sb  Sb1496  1  0.94998960  0.94998720  0.34998820  1
  Sb  Sb1497  1  0.94998960  0.94998720  0.54998820  1
  Sb  Sb1498  1  0.94998960  0.94998720  0.74998820  1
  Sb  Sb1499  1  0.94998960  0.94998720  0.94998820  1
  O  O1500  1  0.07341560  0.17975020  0.07341560  1
  O  O1501  1  0.07341560  0.17975020  0.27341560  1
  O  O1502  1  0.07341560  0.17975020  0.47341560  1
  O  O1503  1  0.07341560  0.17975020  0.67341560  1
  O  O1504  1  0.07341560  0.17975020  0.87341560  1
  O  O1505  1  0.07341560  0.37975020  0.07341560  1
  O  O1506  1  0.07341560  0.37975020  0.27341560  1
  O  O1507  1  0.07341560  0.37975020  0.47341560  1
  O  O1508  1  0.07341560  0.37975020  0.67341560  1
  O  O1509  1  0.07341560  0.37975020  0.87341560  1
  O  O1510  1  0.07341560  0.57975020  0.07341560  1
  O  O1511  1  0.07341560  0.57975020  0.27341560  1
  O  O1512  1  0.07341560  0.57975020  0.47341560  1
  O  O1513  1  0.07341560  0.57975020  0.67341560  1
  O  O1514  1  0.07341560  0.57975020  0.87341560  1
  O  O1515  1  0.07341560  0.77975020  0.07341560  1
  O  O1516  1  0.07341560  0.77975020  0.27341560  1
  O  O1517  1  0.07341560  0.77975020  0.47341560  1
  O  O1518  1  0.07341560  0.77975020  0.67341560  1
  O  O1519  1  0.07341560  0.77975020  0.87341560  1
  O  O1520  1  0.07341560  0.97975020  0.07341560  1
  O  O1521  1  0.07341560  0.97975020  0.27341560  1
  O  O1522  1  0.07341560  0.97975020  0.47341560  1
  O  O1523  1  0.07341560  0.97975020  0.67341560  1
  O  O1524  1  0.07341560  0.97975020  0.87341560  1
  O  O1525  1  0.27341560  0.17975020  0.07341560  1
  O  O1526  1  0.27341560  0.17975020  0.27341560  1
  O  O1527  1  0.27341560  0.17975020  0.47341560  1
  O  O1528  1  0.27341560  0.17975020  0.67341560  1
  O  O1529  1  0.27341560  0.17975020  0.87341560  1
  O  O1530  1  0.27341560  0.37975020  0.07341560  1
  O  O1531  1  0.27341560  0.37975020  0.27341560  1
  O  O1532  1  0.27341560  0.37975020  0.47341560  1
  O  O1533  1  0.27341560  0.37975020  0.67341560  1
  O  O1534  1  0.27341560  0.37975020  0.87341560  1
  O  O1535  1  0.27341560  0.57975020  0.07341560  1
  O  O1536  1  0.27341560  0.57975020  0.27341560  1
  O  O1537  1  0.27341560  0.57975020  0.47341560  1
  O  O1538  1  0.27341560  0.57975020  0.67341560  1
  O  O1539  1  0.27341560  0.57975020  0.87341560  1
  O  O1540  1  0.27341560  0.77975020  0.07341560  1
  O  O1541  1  0.27341560  0.77975020  0.27341560  1
  O  O1542  1  0.27341560  0.77975020  0.47341560  1
  O  O1543  1  0.27341560  0.77975020  0.67341560  1
  O  O1544  1  0.27341560  0.77975020  0.87341560  1
  O  O1545  1  0.27341560  0.97975020  0.07341560  1
  O  O1546  1  0.27341560  0.97975020  0.27341560  1
  O  O1547  1  0.27341560  0.97975020  0.47341560  1
  O  O1548  1  0.27341560  0.97975020  0.67341560  1
  O  O1549  1  0.27341560  0.97975020  0.87341560  1
  O  O1550  1  0.47341560  0.17975020  0.07341560  1
  O  O1551  1  0.47341560  0.17975020  0.27341560  1
  O  O1552  1  0.47341560  0.17975020  0.47341560  1
  O  O1553  1  0.47341560  0.17975020  0.67341560  1
  O  O1554  1  0.47341560  0.17975020  0.87341560  1
  O  O1555  1  0.47341560  0.37975020  0.07341560  1
  O  O1556  1  0.47341560  0.37975020  0.27341560  1
  O  O1557  1  0.47341560  0.37975020  0.47341560  1
  O  O1558  1  0.47341560  0.37975020  0.67341560  1
  O  O1559  1  0.47341560  0.37975020  0.87341560  1
  O  O1560  1  0.47341560  0.57975020  0.07341560  1
  O  O1561  1  0.47341560  0.57975020  0.27341560  1
  O  O1562  1  0.47341560  0.57975020  0.47341560  1
  O  O1563  1  0.47341560  0.57975020  0.67341560  1
  O  O1564  1  0.47341560  0.57975020  0.87341560  1
  O  O1565  1  0.47341560  0.77975020  0.07341560  1
  O  O1566  1  0.47341560  0.77975020  0.27341560  1
  O  O1567  1  0.47341560  0.77975020  0.47341560  1
  O  O1568  1  0.47341560  0.77975020  0.67341560  1
  O  O1569  1  0.47341560  0.77975020  0.87341560  1
  O  O1570  1  0.47341560  0.97975020  0.07341560  1
  O  O1571  1  0.47341560  0.97975020  0.27341560  1
  O  O1572  1  0.47341560  0.97975020  0.47341560  1
  O  O1573  1  0.47341560  0.97975020  0.67341560  1
  O  O1574  1  0.47341560  0.97975020  0.87341560  1
  O  O1575  1  0.67341560  0.17975020  0.07341560  1
  O  O1576  1  0.67341560  0.17975020  0.27341560  1
  O  O1577  1  0.67341560  0.17975020  0.47341560  1
  O  O1578  1  0.67341560  0.17975020  0.67341560  1
  O  O1579  1  0.67341560  0.17975020  0.87341560  1
  O  O1580  1  0.67341560  0.37975020  0.07341560  1
  O  O1581  1  0.67341560  0.37975020  0.27341560  1
  O  O1582  1  0.67341560  0.37975020  0.47341560  1
  O  O1583  1  0.67341560  0.37975020  0.67341560  1
  O  O1584  1  0.67341560  0.37975020  0.87341560  1
  O  O1585  1  0.67341560  0.57975020  0.07341560  1
  O  O1586  1  0.67341560  0.57975020  0.27341560  1
  O  O1587  1  0.67341560  0.57975020  0.47341560  1
  O  O1588  1  0.67341560  0.57975020  0.67341560  1
  O  O1589  1  0.67341560  0.57975020  0.87341560  1
  O  O1590  1  0.67341560  0.77975020  0.07341560  1
  O  O1591  1  0.67341560  0.77975020  0.27341560  1
  O  O1592  1  0.67341560  0.77975020  0.47341560  1
  O  O1593  1  0.67341560  0.77975020  0.67341560  1
  O  O1594  1  0.67341560  0.77975020  0.87341560  1
  O  O1595  1  0.67341560  0.97975020  0.07341560  1
  O  O1596  1  0.67341560  0.97975020  0.27341560  1
  O  O1597  1  0.67341560  0.97975020  0.47341560  1
  O  O1598  1  0.67341560  0.97975020  0.67341560  1
  O  O1599  1  0.67341560  0.97975020  0.87341560  1
  O  O1600  1  0.87341560  0.17975020  0.07341560  1
  O  O1601  1  0.87341560  0.17975020  0.27341560  1
  O  O1602  1  0.87341560  0.17975020  0.47341560  1
  O  O1603  1  0.87341560  0.17975020  0.67341560  1
  O  O1604  1  0.87341560  0.17975020  0.87341560  1
  O  O1605  1  0.87341560  0.37975020  0.07341560  1
  O  O1606  1  0.87341560  0.37975020  0.27341560  1
  O  O1607  1  0.87341560  0.37975020  0.47341560  1
  O  O1608  1  0.87341560  0.37975020  0.67341560  1
  O  O1609  1  0.87341560  0.37975020  0.87341560  1
  O  O1610  1  0.87341560  0.57975020  0.07341560  1
  O  O1611  1  0.87341560  0.57975020  0.27341560  1
  O  O1612  1  0.87341560  0.57975020  0.47341560  1
  O  O1613  1  0.87341560  0.57975020  0.67341560  1
  O  O1614  1  0.87341560  0.57975020  0.87341560  1
  O  O1615  1  0.87341560  0.77975020  0.07341560  1
  O  O1616  1  0.87341560  0.77975020  0.27341560  1
  O  O1617  1  0.87341560  0.77975020  0.47341560  1
  O  O1618  1  0.87341560  0.77975020  0.67341560  1
  O  O1619  1  0.87341560  0.77975020  0.87341560  1
  O  O1620  1  0.87341560  0.97975020  0.07341560  1
  O  O1621  1  0.87341560  0.97975020  0.27341560  1
  O  O1622  1  0.87341560  0.97975020  0.47341560  1
  O  O1623  1  0.87341560  0.97975020  0.67341560  1
  O  O1624  1  0.87341560  0.97975020  0.87341560  1
  O  O1625  1  0.17341940  0.07974380  0.17341940  1
  O  O1626  1  0.17341940  0.07974380  0.37341940  1
  O  O1627  1  0.17341940  0.07974380  0.57341940  1
  O  O1628  1  0.17341940  0.07974380  0.77341940  1
  O  O1629  1  0.17341940  0.07974380  0.97341940  1
  O  O1630  1  0.17341940  0.27974380  0.17341940  1
  O  O1631  1  0.17341940  0.27974380  0.37341940  1
  O  O1632  1  0.17341940  0.27974380  0.57341940  1
  O  O1633  1  0.17341940  0.27974380  0.77341940  1
  O  O1634  1  0.17341940  0.27974380  0.97341940  1
  O  O1635  1  0.17341940  0.47974380  0.17341940  1
  O  O1636  1  0.17341940  0.47974380  0.37341940  1
  O  O1637  1  0.17341940  0.47974380  0.57341940  1
  O  O1638  1  0.17341940  0.47974380  0.77341940  1
  O  O1639  1  0.17341940  0.47974380  0.97341940  1
  O  O1640  1  0.17341940  0.67974380  0.17341940  1
  O  O1641  1  0.17341940  0.67974380  0.37341940  1
  O  O1642  1  0.17341940  0.67974380  0.57341940  1
  O  O1643  1  0.17341940  0.67974380  0.77341940  1
  O  O1644  1  0.17341940  0.67974380  0.97341940  1
  O  O1645  1  0.17341940  0.87974380  0.17341940  1
  O  O1646  1  0.17341940  0.87974380  0.37341940  1
  O  O1647  1  0.17341940  0.87974380  0.57341940  1
  O  O1648  1  0.17341940  0.87974380  0.77341940  1
  O  O1649  1  0.17341940  0.87974380  0.97341940  1
  O  O1650  1  0.37341940  0.07974380  0.17341940  1
  O  O1651  1  0.37341940  0.07974380  0.37341940  1
  O  O1652  1  0.37341940  0.07974380  0.57341940  1
  O  O1653  1  0.37341940  0.07974380  0.77341940  1
  O  O1654  1  0.37341940  0.07974380  0.97341940  1
  O  O1655  1  0.37341940  0.27974380  0.17341940  1
  O  O1656  1  0.37341940  0.27974380  0.37341940  1
  O  O1657  1  0.37341940  0.27974380  0.57341940  1
  O  O1658  1  0.37341940  0.27974380  0.77341940  1
  O  O1659  1  0.37341940  0.27974380  0.97341940  1
  O  O1660  1  0.37341940  0.47974380  0.17341940  1
  O  O1661  1  0.37341940  0.47974380  0.37341940  1
  O  O1662  1  0.37341940  0.47974380  0.57341940  1
  O  O1663  1  0.37341940  0.47974380  0.77341940  1
  O  O1664  1  0.37341940  0.47974380  0.97341940  1
  O  O1665  1  0.37341940  0.67974380  0.17341940  1
  O  O1666  1  0.37341940  0.67974380  0.37341940  1
  O  O1667  1  0.37341940  0.67974380  0.57341940  1
  O  O1668  1  0.37341940  0.67974380  0.77341940  1
  O  O1669  1  0.37341940  0.67974380  0.97341940  1
  O  O1670  1  0.37341940  0.87974380  0.17341940  1
  O  O1671  1  0.37341940  0.87974380  0.37341940  1
  O  O1672  1  0.37341940  0.87974380  0.57341940  1
  O  O1673  1  0.37341940  0.87974380  0.77341940  1
  O  O1674  1  0.37341940  0.87974380  0.97341940  1
  O  O1675  1  0.57341940  0.07974380  0.17341940  1
  O  O1676  1  0.57341940  0.07974380  0.37341940  1
  O  O1677  1  0.57341940  0.07974380  0.57341940  1
  O  O1678  1  0.57341940  0.07974380  0.77341940  1
  O  O1679  1  0.57341940  0.07974380  0.97341940  1
  O  O1680  1  0.57341940  0.27974380  0.17341940  1
  O  O1681  1  0.57341940  0.27974380  0.37341940  1
  O  O1682  1  0.57341940  0.27974380  0.57341940  1
  O  O1683  1  0.57341940  0.27974380  0.77341940  1
  O  O1684  1  0.57341940  0.27974380  0.97341940  1
  O  O1685  1  0.57341940  0.47974380  0.17341940  1
  O  O1686  1  0.57341940  0.47974380  0.37341940  1
  O  O1687  1  0.57341940  0.47974380  0.57341940  1
  O  O1688  1  0.57341940  0.47974380  0.77341940  1
  O  O1689  1  0.57341940  0.47974380  0.97341940  1
  O  O1690  1  0.57341940  0.67974380  0.17341940  1
  O  O1691  1  0.57341940  0.67974380  0.37341940  1
  O  O1692  1  0.57341940  0.67974380  0.57341940  1
  O  O1693  1  0.57341940  0.67974380  0.77341940  1
  O  O1694  1  0.57341940  0.67974380  0.97341940  1
  O  O1695  1  0.57341940  0.87974380  0.17341940  1
  O  O1696  1  0.57341940  0.87974380  0.37341940  1
  O  O1697  1  0.57341940  0.87974380  0.57341940  1
  O  O1698  1  0.57341940  0.87974380  0.77341940  1
  O  O1699  1  0.57341940  0.87974380  0.97341940  1
  O  O1700  1  0.77341940  0.07974380  0.17341940  1
  O  O1701  1  0.77341940  0.07974380  0.37341940  1
  O  O1702  1  0.77341940  0.07974380  0.57341940  1
  O  O1703  1  0.77341940  0.07974380  0.77341940  1
  O  O1704  1  0.77341940  0.07974380  0.97341940  1
  O  O1705  1  0.77341940  0.27974380  0.17341940  1
  O  O1706  1  0.77341940  0.27974380  0.37341940  1
  O  O1707  1  0.77341940  0.27974380  0.57341940  1
  O  O1708  1  0.77341940  0.27974380  0.77341940  1
  O  O1709  1  0.77341940  0.27974380  0.97341940  1
  O  O1710  1  0.77341940  0.47974380  0.17341940  1
  O  O1711  1  0.77341940  0.47974380  0.37341940  1
  O  O1712  1  0.77341940  0.47974380  0.57341940  1
  O  O1713  1  0.77341940  0.47974380  0.77341940  1
  O  O1714  1  0.77341940  0.47974380  0.97341940  1
  O  O1715  1  0.77341940  0.67974380  0.17341940  1
  O  O1716  1  0.77341940  0.67974380  0.37341940  1
  O  O1717  1  0.77341940  0.67974380  0.57341940  1
  O  O1718  1  0.77341940  0.67974380  0.77341940  1
  O  O1719  1  0.77341940  0.67974380  0.97341940  1
  O  O1720  1  0.77341940  0.87974380  0.17341940  1
  O  O1721  1  0.77341940  0.87974380  0.37341940  1
  O  O1722  1  0.77341940  0.87974380  0.57341940  1
  O  O1723  1  0.77341940  0.87974380  0.77341940  1
  O  O1724  1  0.77341940  0.87974380  0.97341940  1
  O  O1725  1  0.97341940  0.07974380  0.17341940  1
  O  O1726  1  0.97341940  0.07974380  0.37341940  1
  O  O1727  1  0.97341940  0.07974380  0.57341940  1
  O  O1728  1  0.97341940  0.07974380  0.77341940  1
  O  O1729  1  0.97341940  0.07974380  0.97341940  1
  O  O1730  1  0.97341940  0.27974380  0.17341940  1
  O  O1731  1  0.97341940  0.27974380  0.37341940  1
  O  O1732  1  0.97341940  0.27974380  0.57341940  1
  O  O1733  1  0.97341940  0.27974380  0.77341940  1
  O  O1734  1  0.97341940  0.27974380  0.97341940  1
  O  O1735  1  0.97341940  0.47974380  0.17341940  1
  O  O1736  1  0.97341940  0.47974380  0.37341940  1
  O  O1737  1  0.97341940  0.47974380  0.57341940  1
  O  O1738  1  0.97341940  0.47974380  0.77341940  1
  O  O1739  1  0.97341940  0.47974380  0.97341940  1
  O  O1740  1  0.97341940  0.67974380  0.17341940  1
  O  O1741  1  0.97341940  0.67974380  0.37341940  1
  O  O1742  1  0.97341940  0.67974380  0.57341940  1
  O  O1743  1  0.97341940  0.67974380  0.77341940  1
  O  O1744  1  0.97341940  0.67974380  0.97341940  1
  O  O1745  1  0.97341940  0.87974380  0.17341940  1
  O  O1746  1  0.97341940  0.87974380  0.37341940  1
  O  O1747  1  0.97341940  0.87974380  0.57341940  1
  O  O1748  1  0.97341940  0.87974380  0.77341940  1
  O  O1749  1  0.97341940  0.87974380  0.97341940  1
  O  O1750  1  0.02658040  0.12025620  0.02658060  1
  O  O1751  1  0.02658040  0.12025620  0.22658060  1
  O  O1752  1  0.02658040  0.12025620  0.42658060  1
  O  O1753  1  0.02658040  0.12025620  0.62658060  1
  O  O1754  1  0.02658040  0.12025620  0.82658060  1
  O  O1755  1  0.02658040  0.32025620  0.02658060  1
  O  O1756  1  0.02658040  0.32025620  0.22658060  1
  O  O1757  1  0.02658040  0.32025620  0.42658060  1
  O  O1758  1  0.02658040  0.32025620  0.62658060  1
  O  O1759  1  0.02658040  0.32025620  0.82658060  1
  O  O1760  1  0.02658040  0.52025620  0.02658060  1
  O  O1761  1  0.02658040  0.52025620  0.22658060  1
  O  O1762  1  0.02658040  0.52025620  0.42658060  1
  O  O1763  1  0.02658040  0.52025620  0.62658060  1
  O  O1764  1  0.02658040  0.52025620  0.82658060  1
  O  O1765  1  0.02658040  0.72025620  0.02658060  1
  O  O1766  1  0.02658040  0.72025620  0.22658060  1
  O  O1767  1  0.02658040  0.72025620  0.42658060  1
  O  O1768  1  0.02658040  0.72025620  0.62658060  1
  O  O1769  1  0.02658040  0.72025620  0.82658060  1
  O  O1770  1  0.02658040  0.92025620  0.02658060  1
  O  O1771  1  0.02658040  0.92025620  0.22658060  1
  O  O1772  1  0.02658040  0.92025620  0.42658060  1
  O  O1773  1  0.02658040  0.92025620  0.62658060  1
  O  O1774  1  0.02658040  0.92025620  0.82658060  1
  O  O1775  1  0.22658040  0.12025620  0.02658060  1
  O  O1776  1  0.22658040  0.12025620  0.22658060  1
  O  O1777  1  0.22658040  0.12025620  0.42658060  1
  O  O1778  1  0.22658040  0.12025620  0.62658060  1
  O  O1779  1  0.22658040  0.12025620  0.82658060  1
  O  O1780  1  0.22658040  0.32025620  0.02658060  1
  O  O1781  1  0.22658040  0.32025620  0.22658060  1
  O  O1782  1  0.22658040  0.32025620  0.42658060  1
  O  O1783  1  0.22658040  0.32025620  0.62658060  1
  O  O1784  1  0.22658040  0.32025620  0.82658060  1
  O  O1785  1  0.22658040  0.52025620  0.02658060  1
  O  O1786  1  0.22658040  0.52025620  0.22658060  1
  O  O1787  1  0.22658040  0.52025620  0.42658060  1
  O  O1788  1  0.22658040  0.52025620  0.62658060  1
  O  O1789  1  0.22658040  0.52025620  0.82658060  1
  O  O1790  1  0.22658040  0.72025620  0.02658060  1
  O  O1791  1  0.22658040  0.72025620  0.22658060  1
  O  O1792  1  0.22658040  0.72025620  0.42658060  1
  O  O1793  1  0.22658040  0.72025620  0.62658060  1
  O  O1794  1  0.22658040  0.72025620  0.82658060  1
  O  O1795  1  0.22658040  0.92025620  0.02658060  1
  O  O1796  1  0.22658040  0.92025620  0.22658060  1
  O  O1797  1  0.22658040  0.92025620  0.42658060  1
  O  O1798  1  0.22658040  0.92025620  0.62658060  1
  O  O1799  1  0.22658040  0.92025620  0.82658060  1
  O  O1800  1  0.42658040  0.12025620  0.02658060  1
  O  O1801  1  0.42658040  0.12025620  0.22658060  1
  O  O1802  1  0.42658040  0.12025620  0.42658060  1
  O  O1803  1  0.42658040  0.12025620  0.62658060  1
  O  O1804  1  0.42658040  0.12025620  0.82658060  1
  O  O1805  1  0.42658040  0.32025620  0.02658060  1
  O  O1806  1  0.42658040  0.32025620  0.22658060  1
  O  O1807  1  0.42658040  0.32025620  0.42658060  1
  O  O1808  1  0.42658040  0.32025620  0.62658060  1
  O  O1809  1  0.42658040  0.32025620  0.82658060  1
  O  O1810  1  0.42658040  0.52025620  0.02658060  1
  O  O1811  1  0.42658040  0.52025620  0.22658060  1
  O  O1812  1  0.42658040  0.52025620  0.42658060  1
  O  O1813  1  0.42658040  0.52025620  0.62658060  1
  O  O1814  1  0.42658040  0.52025620  0.82658060  1
  O  O1815  1  0.42658040  0.72025620  0.02658060  1
  O  O1816  1  0.42658040  0.72025620  0.22658060  1
  O  O1817  1  0.42658040  0.72025620  0.42658060  1
  O  O1818  1  0.42658040  0.72025620  0.62658060  1
  O  O1819  1  0.42658040  0.72025620  0.82658060  1
  O  O1820  1  0.42658040  0.92025620  0.02658060  1
  O  O1821  1  0.42658040  0.92025620  0.22658060  1
  O  O1822  1  0.42658040  0.92025620  0.42658060  1
  O  O1823  1  0.42658040  0.92025620  0.62658060  1
  O  O1824  1  0.42658040  0.92025620  0.82658060  1
  O  O1825  1  0.62658040  0.12025620  0.02658060  1
  O  O1826  1  0.62658040  0.12025620  0.22658060  1
  O  O1827  1  0.62658040  0.12025620  0.42658060  1
  O  O1828  1  0.62658040  0.12025620  0.62658060  1
  O  O1829  1  0.62658040  0.12025620  0.82658060  1
  O  O1830  1  0.62658040  0.32025620  0.02658060  1
  O  O1831  1  0.62658040  0.32025620  0.22658060  1
  O  O1832  1  0.62658040  0.32025620  0.42658060  1
  O  O1833  1  0.62658040  0.32025620  0.62658060  1
  O  O1834  1  0.62658040  0.32025620  0.82658060  1
  O  O1835  1  0.62658040  0.52025620  0.02658060  1
  O  O1836  1  0.62658040  0.52025620  0.22658060  1
  O  O1837  1  0.62658040  0.52025620  0.42658060  1
  O  O1838  1  0.62658040  0.52025620  0.62658060  1
  O  O1839  1  0.62658040  0.52025620  0.82658060  1
  O  O1840  1  0.62658040  0.72025620  0.02658060  1
  O  O1841  1  0.62658040  0.72025620  0.22658060  1
  O  O1842  1  0.62658040  0.72025620  0.42658060  1
  O  O1843  1  0.62658040  0.72025620  0.62658060  1
  O  O1844  1  0.62658040  0.72025620  0.82658060  1
  O  O1845  1  0.62658040  0.92025620  0.02658060  1
  O  O1846  1  0.62658040  0.92025620  0.22658060  1
  O  O1847  1  0.62658040  0.92025620  0.42658060  1
  O  O1848  1  0.62658040  0.92025620  0.62658060  1
  O  O1849  1  0.62658040  0.92025620  0.82658060  1
  O  O1850  1  0.82658040  0.12025620  0.02658060  1
  O  O1851  1  0.82658040  0.12025620  0.22658060  1
  O  O1852  1  0.82658040  0.12025620  0.42658060  1
  O  O1853  1  0.82658040  0.12025620  0.62658060  1
  O  O1854  1  0.82658040  0.12025620  0.82658060  1
  O  O1855  1  0.82658040  0.32025620  0.02658060  1
  O  O1856  1  0.82658040  0.32025620  0.22658060  1
  O  O1857  1  0.82658040  0.32025620  0.42658060  1
  O  O1858  1  0.82658040  0.32025620  0.62658060  1
  O  O1859  1  0.82658040  0.32025620  0.82658060  1
  O  O1860  1  0.82658040  0.52025620  0.02658060  1
  O  O1861  1  0.82658040  0.52025620  0.22658060  1
  O  O1862  1  0.82658040  0.52025620  0.42658060  1
  O  O1863  1  0.82658040  0.52025620  0.62658060  1
  O  O1864  1  0.82658040  0.52025620  0.82658060  1
  O  O1865  1  0.82658040  0.72025620  0.02658060  1
  O  O1866  1  0.82658040  0.72025620  0.22658060  1
  O  O1867  1  0.82658040  0.72025620  0.42658060  1
  O  O1868  1  0.82658040  0.72025620  0.62658060  1
  O  O1869  1  0.82658040  0.72025620  0.82658060  1
  O  O1870  1  0.82658040  0.92025620  0.02658060  1
  O  O1871  1  0.82658040  0.92025620  0.22658060  1
  O  O1872  1  0.82658040  0.92025620  0.42658060  1
  O  O1873  1  0.82658040  0.92025620  0.62658060  1
  O  O1874  1  0.82658040  0.92025620  0.82658060  1
  O  O1875  1  0.12658440  0.02024980  0.12658420  1
  O  O1876  1  0.12658440  0.02024980  0.32658420  1
  O  O1877  1  0.12658440  0.02024980  0.52658420  1
  O  O1878  1  0.12658440  0.02024980  0.72658420  1
  O  O1879  1  0.12658440  0.02024980  0.92658420  1
  O  O1880  1  0.12658440  0.22024980  0.12658420  1
  O  O1881  1  0.12658440  0.22024980  0.32658420  1
  O  O1882  1  0.12658440  0.22024980  0.52658420  1
  O  O1883  1  0.12658440  0.22024980  0.72658420  1
  O  O1884  1  0.12658440  0.22024980  0.92658420  1
  O  O1885  1  0.12658440  0.42024980  0.12658420  1
  O  O1886  1  0.12658440  0.42024980  0.32658420  1
  O  O1887  1  0.12658440  0.42024980  0.52658420  1
  O  O1888  1  0.12658440  0.42024980  0.72658420  1
  O  O1889  1  0.12658440  0.42024980  0.92658420  1
  O  O1890  1  0.12658440  0.62024980  0.12658420  1
  O  O1891  1  0.12658440  0.62024980  0.32658420  1
  O  O1892  1  0.12658440  0.62024980  0.52658420  1
  O  O1893  1  0.12658440  0.62024980  0.72658420  1
  O  O1894  1  0.12658440  0.62024980  0.92658420  1
  O  O1895  1  0.12658440  0.82024980  0.12658420  1
  O  O1896  1  0.12658440  0.82024980  0.32658420  1
  O  O1897  1  0.12658440  0.82024980  0.52658420  1
  O  O1898  1  0.12658440  0.82024980  0.72658420  1
  O  O1899  1  0.12658440  0.82024980  0.92658420  1
  O  O1900  1  0.32658440  0.02024980  0.12658420  1
  O  O1901  1  0.32658440  0.02024980  0.32658420  1
  O  O1902  1  0.32658440  0.02024980  0.52658420  1
  O  O1903  1  0.32658440  0.02024980  0.72658420  1
  O  O1904  1  0.32658440  0.02024980  0.92658420  1
  O  O1905  1  0.32658440  0.22024980  0.12658420  1
  O  O1906  1  0.32658440  0.22024980  0.32658420  1
  O  O1907  1  0.32658440  0.22024980  0.52658420  1
  O  O1908  1  0.32658440  0.22024980  0.72658420  1
  O  O1909  1  0.32658440  0.22024980  0.92658420  1
  O  O1910  1  0.32658440  0.42024980  0.12658420  1
  O  O1911  1  0.32658440  0.42024980  0.32658420  1
  O  O1912  1  0.32658440  0.42024980  0.52658420  1
  O  O1913  1  0.32658440  0.42024980  0.72658420  1
  O  O1914  1  0.32658440  0.42024980  0.92658420  1
  O  O1915  1  0.32658440  0.62024980  0.12658420  1
  O  O1916  1  0.32658440  0.62024980  0.32658420  1
  O  O1917  1  0.32658440  0.62024980  0.52658420  1
  O  O1918  1  0.32658440  0.62024980  0.72658420  1
  O  O1919  1  0.32658440  0.62024980  0.92658420  1
  O  O1920  1  0.32658440  0.82024980  0.12658420  1
  O  O1921  1  0.32658440  0.82024980  0.32658420  1
  O  O1922  1  0.32658440  0.82024980  0.52658420  1
  O  O1923  1  0.32658440  0.82024980  0.72658420  1
  O  O1924  1  0.32658440  0.82024980  0.92658420  1
  O  O1925  1  0.52658440  0.02024980  0.12658420  1
  O  O1926  1  0.52658440  0.02024980  0.32658420  1
  O  O1927  1  0.52658440  0.02024980  0.52658420  1
  O  O1928  1  0.52658440  0.02024980  0.72658420  1
  O  O1929  1  0.52658440  0.02024980  0.92658420  1
  O  O1930  1  0.52658440  0.22024980  0.12658420  1
  O  O1931  1  0.52658440  0.22024980  0.32658420  1
  O  O1932  1  0.52658440  0.22024980  0.52658420  1
  O  O1933  1  0.52658440  0.22024980  0.72658420  1
  O  O1934  1  0.52658440  0.22024980  0.92658420  1
  O  O1935  1  0.52658440  0.42024980  0.12658420  1
  O  O1936  1  0.52658440  0.42024980  0.32658420  1
  O  O1937  1  0.52658440  0.42024980  0.52658420  1
  O  O1938  1  0.52658440  0.42024980  0.72658420  1
  O  O1939  1  0.52658440  0.42024980  0.92658420  1
  O  O1940  1  0.52658440  0.62024980  0.12658420  1
  O  O1941  1  0.52658440  0.62024980  0.32658420  1
  O  O1942  1  0.52658440  0.62024980  0.52658420  1
  O  O1943  1  0.52658440  0.62024980  0.72658420  1
  O  O1944  1  0.52658440  0.62024980  0.92658420  1
  O  O1945  1  0.52658440  0.82024980  0.12658420  1
  O  O1946  1  0.52658440  0.82024980  0.32658420  1
  O  O1947  1  0.52658440  0.82024980  0.52658420  1
  O  O1948  1  0.52658440  0.82024980  0.72658420  1
  O  O1949  1  0.52658440  0.82024980  0.92658420  1
  O  O1950  1  0.72658440  0.02024980  0.12658420  1
  O  O1951  1  0.72658440  0.02024980  0.32658420  1
  O  O1952  1  0.72658440  0.02024980  0.52658420  1
  O  O1953  1  0.72658440  0.02024980  0.72658420  1
  O  O1954  1  0.72658440  0.02024980  0.92658420  1
  O  O1955  1  0.72658440  0.22024980  0.12658420  1
  O  O1956  1  0.72658440  0.22024980  0.32658420  1
  O  O1957  1  0.72658440  0.22024980  0.52658420  1
  O  O1958  1  0.72658440  0.22024980  0.72658420  1
  O  O1959  1  0.72658440  0.22024980  0.92658420  1
  O  O1960  1  0.72658440  0.42024980  0.12658420  1
  O  O1961  1  0.72658440  0.42024980  0.32658420  1
  O  O1962  1  0.72658440  0.42024980  0.52658420  1
  O  O1963  1  0.72658440  0.42024980  0.72658420  1
  O  O1964  1  0.72658440  0.42024980  0.92658420  1
  O  O1965  1  0.72658440  0.62024980  0.12658420  1
  O  O1966  1  0.72658440  0.62024980  0.32658420  1
  O  O1967  1  0.72658440  0.62024980  0.52658420  1
  O  O1968  1  0.72658440  0.62024980  0.72658420  1
  O  O1969  1  0.72658440  0.62024980  0.92658420  1
  O  O1970  1  0.72658440  0.82024980  0.12658420  1
  O  O1971  1  0.72658440  0.82024980  0.32658420  1
  O  O1972  1  0.72658440  0.82024980  0.52658420  1
  O  O1973  1  0.72658440  0.82024980  0.72658420  1
  O  O1974  1  0.72658440  0.82024980  0.92658420  1
  O  O1975  1  0.92658440  0.02024980  0.12658420  1
  O  O1976  1  0.92658440  0.02024980  0.32658420  1
  O  O1977  1  0.92658440  0.02024980  0.52658420  1
  O  O1978  1  0.92658440  0.02024980  0.72658420  1
  O  O1979  1  0.92658440  0.02024980  0.92658420  1
  O  O1980  1  0.92658440  0.22024980  0.12658420  1
  O  O1981  1  0.92658440  0.22024980  0.32658420  1
  O  O1982  1  0.92658440  0.22024980  0.52658420  1
  O  O1983  1  0.92658440  0.22024980  0.72658420  1
  O  O1984  1  0.92658440  0.22024980  0.92658420  1
  O  O1985  1  0.92658440  0.42024980  0.12658420  1
  O  O1986  1  0.92658440  0.42024980  0.32658420  1
  O  O1987  1  0.92658440  0.42024980  0.52658420  1
  O  O1988  1  0.92658440  0.42024980  0.72658420  1
  O  O1989  1  0.92658440  0.42024980  0.92658420  1
  O  O1990  1  0.92658440  0.62024980  0.12658420  1
  O  O1991  1  0.92658440  0.62024980  0.32658420  1
  O  O1992  1  0.92658440  0.62024980  0.52658420  1
  O  O1993  1  0.92658440  0.62024980  0.72658420  1
  O  O1994  1  0.92658440  0.62024980  0.92658420  1
  O  O1995  1  0.92658440  0.82024980  0.12658420  1
  O  O1996  1  0.92658440  0.82024980  0.32658420  1
  O  O1997  1  0.92658440  0.82024980  0.52658420  1
  O  O1998  1  0.92658440  0.82024980  0.72658420  1
  O  O1999  1  0.92658440  0.82024980  0.92658420  1
  O  O2000  1  0.11877300  0.02475120  0.02823560  1
  O  O2001  1  0.11877300  0.02475120  0.22823560  1
  O  O2002  1  0.11877300  0.02475120  0.42823560  1
  O  O2003  1  0.11877300  0.02475120  0.62823560  1
  O  O2004  1  0.11877300  0.02475120  0.82823560  1
  O  O2005  1  0.11877300  0.22475120  0.02823560  1
  O  O2006  1  0.11877300  0.22475120  0.22823560  1
  O  O2007  1  0.11877300  0.22475120  0.42823560  1
  O  O2008  1  0.11877300  0.22475120  0.62823560  1
  O  O2009  1  0.11877300  0.22475120  0.82823560  1
  O  O2010  1  0.11877300  0.42475120  0.02823560  1
  O  O2011  1  0.11877300  0.42475120  0.22823560  1
  O  O2012  1  0.11877300  0.42475120  0.42823560  1
  O  O2013  1  0.11877300  0.42475120  0.62823560  1
  O  O2014  1  0.11877300  0.42475120  0.82823560  1
  O  O2015  1  0.11877300  0.62475120  0.02823560  1
  O  O2016  1  0.11877300  0.62475120  0.22823560  1
  O  O2017  1  0.11877300  0.62475120  0.42823560  1
  O  O2018  1  0.11877300  0.62475120  0.62823560  1
  O  O2019  1  0.11877300  0.62475120  0.82823560  1
  O  O2020  1  0.11877300  0.82475120  0.02823560  1
  O  O2021  1  0.11877300  0.82475120  0.22823560  1
  O  O2022  1  0.11877300  0.82475120  0.42823560  1
  O  O2023  1  0.11877300  0.82475120  0.62823560  1
  O  O2024  1  0.11877300  0.82475120  0.82823560  1
  O  O2025  1  0.31877300  0.02475120  0.02823560  1
  O  O2026  1  0.31877300  0.02475120  0.22823560  1
  O  O2027  1  0.31877300  0.02475120  0.42823560  1
  O  O2028  1  0.31877300  0.02475120  0.62823560  1
  O  O2029  1  0.31877300  0.02475120  0.82823560  1
  O  O2030  1  0.31877300  0.22475120  0.02823560  1
  O  O2031  1  0.31877300  0.22475120  0.22823560  1
  O  O2032  1  0.31877300  0.22475120  0.42823560  1
  O  O2033  1  0.31877300  0.22475120  0.62823560  1
  O  O2034  1  0.31877300  0.22475120  0.82823560  1
  O  O2035  1  0.31877300  0.42475120  0.02823560  1
  O  O2036  1  0.31877300  0.42475120  0.22823560  1
  O  O2037  1  0.31877300  0.42475120  0.42823560  1
  O  O2038  1  0.31877300  0.42475120  0.62823560  1
  O  O2039  1  0.31877300  0.42475120  0.82823560  1
  O  O2040  1  0.31877300  0.62475120  0.02823560  1
  O  O2041  1  0.31877300  0.62475120  0.22823560  1
  O  O2042  1  0.31877300  0.62475120  0.42823560  1
  O  O2043  1  0.31877300  0.62475120  0.62823560  1
  O  O2044  1  0.31877300  0.62475120  0.82823560  1
  O  O2045  1  0.31877300  0.82475120  0.02823560  1
  O  O2046  1  0.31877300  0.82475120  0.22823560  1
  O  O2047  1  0.31877300  0.82475120  0.42823560  1
  O  O2048  1  0.31877300  0.82475120  0.62823560  1
  O  O2049  1  0.31877300  0.82475120  0.82823560  1
  O  O2050  1  0.51877300  0.02475120  0.02823560  1
  O  O2051  1  0.51877300  0.02475120  0.22823560  1
  O  O2052  1  0.51877300  0.02475120  0.42823560  1
  O  O2053  1  0.51877300  0.02475120  0.62823560  1
  O  O2054  1  0.51877300  0.02475120  0.82823560  1
  O  O2055  1  0.51877300  0.22475120  0.02823560  1
  O  O2056  1  0.51877300  0.22475120  0.22823560  1
  O  O2057  1  0.51877300  0.22475120  0.42823560  1
  O  O2058  1  0.51877300  0.22475120  0.62823560  1
  O  O2059  1  0.51877300  0.22475120  0.82823560  1
  O  O2060  1  0.51877300  0.42475120  0.02823560  1
  O  O2061  1  0.51877300  0.42475120  0.22823560  1
  O  O2062  1  0.51877300  0.42475120  0.42823560  1
  O  O2063  1  0.51877300  0.42475120  0.62823560  1
  O  O2064  1  0.51877300  0.42475120  0.82823560  1
  O  O2065  1  0.51877300  0.62475120  0.02823560  1
  O  O2066  1  0.51877300  0.62475120  0.22823560  1
  O  O2067  1  0.51877300  0.62475120  0.42823560  1
  O  O2068  1  0.51877300  0.62475120  0.62823560  1
  O  O2069  1  0.51877300  0.62475120  0.82823560  1
  O  O2070  1  0.51877300  0.82475120  0.02823560  1
  O  O2071  1  0.51877300  0.82475120  0.22823560  1
  O  O2072  1  0.51877300  0.82475120  0.42823560  1
  O  O2073  1  0.51877300  0.82475120  0.62823560  1
  O  O2074  1  0.51877300  0.82475120  0.82823560  1
  O  O2075  1  0.71877300  0.02475120  0.02823560  1
  O  O2076  1  0.71877300  0.02475120  0.22823560  1
  O  O2077  1  0.71877300  0.02475120  0.42823560  1
  O  O2078  1  0.71877300  0.02475120  0.62823560  1
  O  O2079  1  0.71877300  0.02475120  0.82823560  1
  O  O2080  1  0.71877300  0.22475120  0.02823560  1
  O  O2081  1  0.71877300  0.22475120  0.22823560  1
  O  O2082  1  0.71877300  0.22475120  0.42823560  1
  O  O2083  1  0.71877300  0.22475120  0.62823560  1
  O  O2084  1  0.71877300  0.22475120  0.82823560  1
  O  O2085  1  0.71877300  0.42475120  0.02823560  1
  O  O2086  1  0.71877300  0.42475120  0.22823560  1
  O  O2087  1  0.71877300  0.42475120  0.42823560  1
  O  O2088  1  0.71877300  0.42475120  0.62823560  1
  O  O2089  1  0.71877300  0.42475120  0.82823560  1
  O  O2090  1  0.71877300  0.62475120  0.02823560  1
  O  O2091  1  0.71877300  0.62475120  0.22823560  1
  O  O2092  1  0.71877300  0.62475120  0.42823560  1
  O  O2093  1  0.71877300  0.62475120  0.62823560  1
  O  O2094  1  0.71877300  0.62475120  0.82823560  1
  O  O2095  1  0.71877300  0.82475120  0.02823560  1
  O  O2096  1  0.71877300  0.82475120  0.22823560  1
  O  O2097  1  0.71877300  0.82475120  0.42823560  1
  O  O2098  1  0.71877300  0.82475120  0.62823560  1
  O  O2099  1  0.71877300  0.82475120  0.82823560  1
  O  O2100  1  0.91877300  0.02475120  0.02823560  1
  O  O2101  1  0.91877300  0.02475120  0.22823560  1
  O  O2102  1  0.91877300  0.02475120  0.42823560  1
  O  O2103  1  0.91877300  0.02475120  0.62823560  1
  O  O2104  1  0.91877300  0.02475120  0.82823560  1
  O  O2105  1  0.91877300  0.22475120  0.02823560  1
  O  O2106  1  0.91877300  0.22475120  0.22823560  1
  O  O2107  1  0.91877300  0.22475120  0.42823560  1
  O  O2108  1  0.91877300  0.22475120  0.62823560  1
  O  O2109  1  0.91877300  0.22475120  0.82823560  1
  O  O2110  1  0.91877300  0.42475120  0.02823560  1
  O  O2111  1  0.91877300  0.42475120  0.22823560  1
  O  O2112  1  0.91877300  0.42475120  0.42823560  1
  O  O2113  1  0.91877300  0.42475120  0.62823560  1
  O  O2114  1  0.91877300  0.42475120  0.82823560  1
  O  O2115  1  0.91877300  0.62475120  0.02823560  1
  O  O2116  1  0.91877300  0.62475120  0.22823560  1
  O  O2117  1  0.91877300  0.62475120  0.42823560  1
  O  O2118  1  0.91877300  0.62475120  0.62823560  1
  O  O2119  1  0.91877300  0.62475120  0.82823560  1
  O  O2120  1  0.91877300  0.82475120  0.02823560  1
  O  O2121  1  0.91877300  0.82475120  0.22823560  1
  O  O2122  1  0.91877300  0.82475120  0.42823560  1
  O  O2123  1  0.91877300  0.82475120  0.62823560  1
  O  O2124  1  0.91877300  0.82475120  0.82823560  1
  O  O2125  1  0.01876600  0.12475060  0.12822340  1
  O  O2126  1  0.01876600  0.12475060  0.32822340  1
  O  O2127  1  0.01876600  0.12475060  0.52822340  1
  O  O2128  1  0.01876600  0.12475060  0.72822340  1
  O  O2129  1  0.01876600  0.12475060  0.92822340  1
  O  O2130  1  0.01876600  0.32475060  0.12822340  1
  O  O2131  1  0.01876600  0.32475060  0.32822340  1
  O  O2132  1  0.01876600  0.32475060  0.52822340  1
  O  O2133  1  0.01876600  0.32475060  0.72822340  1
  O  O2134  1  0.01876600  0.32475060  0.92822340  1
  O  O2135  1  0.01876600  0.52475060  0.12822340  1
  O  O2136  1  0.01876600  0.52475060  0.32822340  1
  O  O2137  1  0.01876600  0.52475060  0.52822340  1
  O  O2138  1  0.01876600  0.52475060  0.72822340  1
  O  O2139  1  0.01876600  0.52475060  0.92822340  1
  O  O2140  1  0.01876600  0.72475060  0.12822340  1
  O  O2141  1  0.01876600  0.72475060  0.32822340  1
  O  O2142  1  0.01876600  0.72475060  0.52822340  1
  O  O2143  1  0.01876600  0.72475060  0.72822340  1
  O  O2144  1  0.01876600  0.72475060  0.92822340  1
  O  O2145  1  0.01876600  0.92475060  0.12822340  1
  O  O2146  1  0.01876600  0.92475060  0.32822340  1
  O  O2147  1  0.01876600  0.92475060  0.52822340  1
  O  O2148  1  0.01876600  0.92475060  0.72822340  1
  O  O2149  1  0.01876600  0.92475060  0.92822340  1
  O  O2150  1  0.21876600  0.12475060  0.12822340  1
  O  O2151  1  0.21876600  0.12475060  0.32822340  1
  O  O2152  1  0.21876600  0.12475060  0.52822340  1
  O  O2153  1  0.21876600  0.12475060  0.72822340  1
  O  O2154  1  0.21876600  0.12475060  0.92822340  1
  O  O2155  1  0.21876600  0.32475060  0.12822340  1
  O  O2156  1  0.21876600  0.32475060  0.32822340  1
  O  O2157  1  0.21876600  0.32475060  0.52822340  1
  O  O2158  1  0.21876600  0.32475060  0.72822340  1
  O  O2159  1  0.21876600  0.32475060  0.92822340  1
  O  O2160  1  0.21876600  0.52475060  0.12822340  1
  O  O2161  1  0.21876600  0.52475060  0.32822340  1
  O  O2162  1  0.21876600  0.52475060  0.52822340  1
  O  O2163  1  0.21876600  0.52475060  0.72822340  1
  O  O2164  1  0.21876600  0.52475060  0.92822340  1
  O  O2165  1  0.21876600  0.72475060  0.12822340  1
  O  O2166  1  0.21876600  0.72475060  0.32822340  1
  O  O2167  1  0.21876600  0.72475060  0.52822340  1
  O  O2168  1  0.21876600  0.72475060  0.72822340  1
  O  O2169  1  0.21876600  0.72475060  0.92822340  1
  O  O2170  1  0.21876600  0.92475060  0.12822340  1
  O  O2171  1  0.21876600  0.92475060  0.32822340  1
  O  O2172  1  0.21876600  0.92475060  0.52822340  1
  O  O2173  1  0.21876600  0.92475060  0.72822340  1
  O  O2174  1  0.21876600  0.92475060  0.92822340  1
  O  O2175  1  0.41876600  0.12475060  0.12822340  1
  O  O2176  1  0.41876600  0.12475060  0.32822340  1
  O  O2177  1  0.41876600  0.12475060  0.52822340  1
  O  O2178  1  0.41876600  0.12475060  0.72822340  1
  O  O2179  1  0.41876600  0.12475060  0.92822340  1
  O  O2180  1  0.41876600  0.32475060  0.12822340  1
  O  O2181  1  0.41876600  0.32475060  0.32822340  1
  O  O2182  1  0.41876600  0.32475060  0.52822340  1
  O  O2183  1  0.41876600  0.32475060  0.72822340  1
  O  O2184  1  0.41876600  0.32475060  0.92822340  1
  O  O2185  1  0.41876600  0.52475060  0.12822340  1
  O  O2186  1  0.41876600  0.52475060  0.32822340  1
  O  O2187  1  0.41876600  0.52475060  0.52822340  1
  O  O2188  1  0.41876600  0.52475060  0.72822340  1
  O  O2189  1  0.41876600  0.52475060  0.92822340  1
  O  O2190  1  0.41876600  0.72475060  0.12822340  1
  O  O2191  1  0.41876600  0.72475060  0.32822340  1
  O  O2192  1  0.41876600  0.72475060  0.52822340  1
  O  O2193  1  0.41876600  0.72475060  0.72822340  1
  O  O2194  1  0.41876600  0.72475060  0.92822340  1
  O  O2195  1  0.41876600  0.92475060  0.12822340  1
  O  O2196  1  0.41876600  0.92475060  0.32822340  1
  O  O2197  1  0.41876600  0.92475060  0.52822340  1
  O  O2198  1  0.41876600  0.92475060  0.72822340  1
  O  O2199  1  0.41876600  0.92475060  0.92822340  1
  O  O2200  1  0.61876600  0.12475060  0.12822340  1
  O  O2201  1  0.61876600  0.12475060  0.32822340  1
  O  O2202  1  0.61876600  0.12475060  0.52822340  1
  O  O2203  1  0.61876600  0.12475060  0.72822340  1
  O  O2204  1  0.61876600  0.12475060  0.92822340  1
  O  O2205  1  0.61876600  0.32475060  0.12822340  1
  O  O2206  1  0.61876600  0.32475060  0.32822340  1
  O  O2207  1  0.61876600  0.32475060  0.52822340  1
  O  O2208  1  0.61876600  0.32475060  0.72822340  1
  O  O2209  1  0.61876600  0.32475060  0.92822340  1
  O  O2210  1  0.61876600  0.52475060  0.12822340  1
  O  O2211  1  0.61876600  0.52475060  0.32822340  1
  O  O2212  1  0.61876600  0.52475060  0.52822340  1
  O  O2213  1  0.61876600  0.52475060  0.72822340  1
  O  O2214  1  0.61876600  0.52475060  0.92822340  1
  O  O2215  1  0.61876600  0.72475060  0.12822340  1
  O  O2216  1  0.61876600  0.72475060  0.32822340  1
  O  O2217  1  0.61876600  0.72475060  0.52822340  1
  O  O2218  1  0.61876600  0.72475060  0.72822340  1
  O  O2219  1  0.61876600  0.72475060  0.92822340  1
  O  O2220  1  0.61876600  0.92475060  0.12822340  1
  O  O2221  1  0.61876600  0.92475060  0.32822340  1
  O  O2222  1  0.61876600  0.92475060  0.52822340  1
  O  O2223  1  0.61876600  0.92475060  0.72822340  1
  O  O2224  1  0.61876600  0.92475060  0.92822340  1
  O  O2225  1  0.81876600  0.12475060  0.12822340  1
  O  O2226  1  0.81876600  0.12475060  0.32822340  1
  O  O2227  1  0.81876600  0.12475060  0.52822340  1
  O  O2228  1  0.81876600  0.12475060  0.72822340  1
  O  O2229  1  0.81876600  0.12475060  0.92822340  1
  O  O2230  1  0.81876600  0.32475060  0.12822340  1
  O  O2231  1  0.81876600  0.32475060  0.32822340  1
  O  O2232  1  0.81876600  0.32475060  0.52822340  1
  O  O2233  1  0.81876600  0.32475060  0.72822340  1
  O  O2234  1  0.81876600  0.32475060  0.92822340  1
  O  O2235  1  0.81876600  0.52475060  0.12822340  1
  O  O2236  1  0.81876600  0.52475060  0.32822340  1
  O  O2237  1  0.81876600  0.52475060  0.52822340  1
  O  O2238  1  0.81876600  0.52475060  0.72822340  1
  O  O2239  1  0.81876600  0.52475060  0.92822340  1
  O  O2240  1  0.81876600  0.72475060  0.12822340  1
  O  O2241  1  0.81876600  0.72475060  0.32822340  1
  O  O2242  1  0.81876600  0.72475060  0.52822340  1
  O  O2243  1  0.81876600  0.72475060  0.72822340  1
  O  O2244  1  0.81876600  0.72475060  0.92822340  1
  O  O2245  1  0.81876600  0.92475060  0.12822340  1
  O  O2246  1  0.81876600  0.92475060  0.32822340  1
  O  O2247  1  0.81876600  0.92475060  0.52822340  1
  O  O2248  1  0.81876600  0.92475060  0.72822340  1
  O  O2249  1  0.81876600  0.92475060  0.92822340  1
  O  O2250  1  0.02823280  0.02475220  0.11877320  1
  O  O2251  1  0.02823280  0.02475220  0.31877320  1
  O  O2252  1  0.02823280  0.02475220  0.51877320  1
  O  O2253  1  0.02823280  0.02475220  0.71877320  1
  O  O2254  1  0.02823280  0.02475220  0.91877320  1
  O  O2255  1  0.02823280  0.22475220  0.11877320  1
  O  O2256  1  0.02823280  0.22475220  0.31877320  1
  O  O2257  1  0.02823280  0.22475220  0.51877320  1
  O  O2258  1  0.02823280  0.22475220  0.71877320  1
  O  O2259  1  0.02823280  0.22475220  0.91877320  1
  O  O2260  1  0.02823280  0.42475220  0.11877320  1
  O  O2261  1  0.02823280  0.42475220  0.31877320  1
  O  O2262  1  0.02823280  0.42475220  0.51877320  1
  O  O2263  1  0.02823280  0.42475220  0.71877320  1
  O  O2264  1  0.02823280  0.42475220  0.91877320  1
  O  O2265  1  0.02823280  0.62475220  0.11877320  1
  O  O2266  1  0.02823280  0.62475220  0.31877320  1
  O  O2267  1  0.02823280  0.62475220  0.51877320  1
  O  O2268  1  0.02823280  0.62475220  0.71877320  1
  O  O2269  1  0.02823280  0.62475220  0.91877320  1
  O  O2270  1  0.02823280  0.82475220  0.11877320  1
  O  O2271  1  0.02823280  0.82475220  0.31877320  1
  O  O2272  1  0.02823280  0.82475220  0.51877320  1
  O  O2273  1  0.02823280  0.82475220  0.71877320  1
  O  O2274  1  0.02823280  0.82475220  0.91877320  1
  O  O2275  1  0.22823280  0.02475220  0.11877320  1
  O  O2276  1  0.22823280  0.02475220  0.31877320  1
  O  O2277  1  0.22823280  0.02475220  0.51877320  1
  O  O2278  1  0.22823280  0.02475220  0.71877320  1
  O  O2279  1  0.22823280  0.02475220  0.91877320  1
  O  O2280  1  0.22823280  0.22475220  0.11877320  1
  O  O2281  1  0.22823280  0.22475220  0.31877320  1
  O  O2282  1  0.22823280  0.22475220  0.51877320  1
  O  O2283  1  0.22823280  0.22475220  0.71877320  1
  O  O2284  1  0.22823280  0.22475220  0.91877320  1
  O  O2285  1  0.22823280  0.42475220  0.11877320  1
  O  O2286  1  0.22823280  0.42475220  0.31877320  1
  O  O2287  1  0.22823280  0.42475220  0.51877320  1
  O  O2288  1  0.22823280  0.42475220  0.71877320  1
  O  O2289  1  0.22823280  0.42475220  0.91877320  1
  O  O2290  1  0.22823280  0.62475220  0.11877320  1
  O  O2291  1  0.22823280  0.62475220  0.31877320  1
  O  O2292  1  0.22823280  0.62475220  0.51877320  1
  O  O2293  1  0.22823280  0.62475220  0.71877320  1
  O  O2294  1  0.22823280  0.62475220  0.91877320  1
  O  O2295  1  0.22823280  0.82475220  0.11877320  1
  O  O2296  1  0.22823280  0.82475220  0.31877320  1
  O  O2297  1  0.22823280  0.82475220  0.51877320  1
  O  O2298  1  0.22823280  0.82475220  0.71877320  1
  O  O2299  1  0.22823280  0.82475220  0.91877320  1
  O  O2300  1  0.42823280  0.02475220  0.11877320  1
  O  O2301  1  0.42823280  0.02475220  0.31877320  1
  O  O2302  1  0.42823280  0.02475220  0.51877320  1
  O  O2303  1  0.42823280  0.02475220  0.71877320  1
  O  O2304  1  0.42823280  0.02475220  0.91877320  1
  O  O2305  1  0.42823280  0.22475220  0.11877320  1
  O  O2306  1  0.42823280  0.22475220  0.31877320  1
  O  O2307  1  0.42823280  0.22475220  0.51877320  1
  O  O2308  1  0.42823280  0.22475220  0.71877320  1
  O  O2309  1  0.42823280  0.22475220  0.91877320  1
  O  O2310  1  0.42823280  0.42475220  0.11877320  1
  O  O2311  1  0.42823280  0.42475220  0.31877320  1
  O  O2312  1  0.42823280  0.42475220  0.51877320  1
  O  O2313  1  0.42823280  0.42475220  0.71877320  1
  O  O2314  1  0.42823280  0.42475220  0.91877320  1
  O  O2315  1  0.42823280  0.62475220  0.11877320  1
  O  O2316  1  0.42823280  0.62475220  0.31877320  1
  O  O2317  1  0.42823280  0.62475220  0.51877320  1
  O  O2318  1  0.42823280  0.62475220  0.71877320  1
  O  O2319  1  0.42823280  0.62475220  0.91877320  1
  O  O2320  1  0.42823280  0.82475220  0.11877320  1
  O  O2321  1  0.42823280  0.82475220  0.31877320  1
  O  O2322  1  0.42823280  0.82475220  0.51877320  1
  O  O2323  1  0.42823280  0.82475220  0.71877320  1
  O  O2324  1  0.42823280  0.82475220  0.91877320  1
  O  O2325  1  0.62823280  0.02475220  0.11877320  1
  O  O2326  1  0.62823280  0.02475220  0.31877320  1
  O  O2327  1  0.62823280  0.02475220  0.51877320  1
  O  O2328  1  0.62823280  0.02475220  0.71877320  1
  O  O2329  1  0.62823280  0.02475220  0.91877320  1
  O  O2330  1  0.62823280  0.22475220  0.11877320  1
  O  O2331  1  0.62823280  0.22475220  0.31877320  1
  O  O2332  1  0.62823280  0.22475220  0.51877320  1
  O  O2333  1  0.62823280  0.22475220  0.71877320  1
  O  O2334  1  0.62823280  0.22475220  0.91877320  1
  O  O2335  1  0.62823280  0.42475220  0.11877320  1
  O  O2336  1  0.62823280  0.42475220  0.31877320  1
  O  O2337  1  0.62823280  0.42475220  0.51877320  1
  O  O2338  1  0.62823280  0.42475220  0.71877320  1
  O  O2339  1  0.62823280  0.42475220  0.91877320  1
  O  O2340  1  0.62823280  0.62475220  0.11877320  1
  O  O2341  1  0.62823280  0.62475220  0.31877320  1
  O  O2342  1  0.62823280  0.62475220  0.51877320  1
  O  O2343  1  0.62823280  0.62475220  0.71877320  1
  O  O2344  1  0.62823280  0.62475220  0.91877320  1
  O  O2345  1  0.62823280  0.82475220  0.11877320  1
  O  O2346  1  0.62823280  0.82475220  0.31877320  1
  O  O2347  1  0.62823280  0.82475220  0.51877320  1
  O  O2348  1  0.62823280  0.82475220  0.71877320  1
  O  O2349  1  0.62823280  0.82475220  0.91877320  1
  O  O2350  1  0.82823280  0.02475220  0.11877320  1
  O  O2351  1  0.82823280  0.02475220  0.31877320  1
  O  O2352  1  0.82823280  0.02475220  0.51877320  1
  O  O2353  1  0.82823280  0.02475220  0.71877320  1
  O  O2354  1  0.82823280  0.02475220  0.91877320  1
  O  O2355  1  0.82823280  0.22475220  0.11877320  1
  O  O2356  1  0.82823280  0.22475220  0.31877320  1
  O  O2357  1  0.82823280  0.22475220  0.51877320  1
  O  O2358  1  0.82823280  0.22475220  0.71877320  1
  O  O2359  1  0.82823280  0.22475220  0.91877320  1
  O  O2360  1  0.82823280  0.42475220  0.11877320  1
  O  O2361  1  0.82823280  0.42475220  0.31877320  1
  O  O2362  1  0.82823280  0.42475220  0.51877320  1
  O  O2363  1  0.82823280  0.42475220  0.71877320  1
  O  O2364  1  0.82823280  0.42475220  0.91877320  1
  O  O2365  1  0.82823280  0.62475220  0.11877320  1
  O  O2366  1  0.82823280  0.62475220  0.31877320  1
  O  O2367  1  0.82823280  0.62475220  0.51877320  1
  O  O2368  1  0.82823280  0.62475220  0.71877320  1
  O  O2369  1  0.82823280  0.62475220  0.91877320  1
  O  O2370  1  0.82823280  0.82475220  0.11877320  1
  O  O2371  1  0.82823280  0.82475220  0.31877320  1
  O  O2372  1  0.82823280  0.82475220  0.51877320  1
  O  O2373  1  0.82823280  0.82475220  0.71877320  1
  O  O2374  1  0.82823280  0.82475220  0.91877320  1
  O  O2375  1  0.12822020  0.12475060  0.01876560  1
  O  O2376  1  0.12822020  0.12475060  0.21876560  1
  O  O2377  1  0.12822020  0.12475060  0.41876560  1
  O  O2378  1  0.12822020  0.12475060  0.61876560  1
  O  O2379  1  0.12822020  0.12475060  0.81876560  1
  O  O2380  1  0.12822020  0.32475060  0.01876560  1
  O  O2381  1  0.12822020  0.32475060  0.21876560  1
  O  O2382  1  0.12822020  0.32475060  0.41876560  1
  O  O2383  1  0.12822020  0.32475060  0.61876560  1
  O  O2384  1  0.12822020  0.32475060  0.81876560  1
  O  O2385  1  0.12822020  0.52475060  0.01876560  1
  O  O2386  1  0.12822020  0.52475060  0.21876560  1
  O  O2387  1  0.12822020  0.52475060  0.41876560  1
  O  O2388  1  0.12822020  0.52475060  0.61876560  1
  O  O2389  1  0.12822020  0.52475060  0.81876560  1
  O  O2390  1  0.12822020  0.72475060  0.01876560  1
  O  O2391  1  0.12822020  0.72475060  0.21876560  1
  O  O2392  1  0.12822020  0.72475060  0.41876560  1
  O  O2393  1  0.12822020  0.72475060  0.61876560  1
  O  O2394  1  0.12822020  0.72475060  0.81876560  1
  O  O2395  1  0.12822020  0.92475060  0.01876560  1
  O  O2396  1  0.12822020  0.92475060  0.21876560  1
  O  O2397  1  0.12822020  0.92475060  0.41876560  1
  O  O2398  1  0.12822020  0.92475060  0.61876560  1
  O  O2399  1  0.12822020  0.92475060  0.81876560  1
  O  O2400  1  0.32822020  0.12475060  0.01876560  1
  O  O2401  1  0.32822020  0.12475060  0.21876560  1
  O  O2402  1  0.32822020  0.12475060  0.41876560  1
  O  O2403  1  0.32822020  0.12475060  0.61876560  1
  O  O2404  1  0.32822020  0.12475060  0.81876560  1
  O  O2405  1  0.32822020  0.32475060  0.01876560  1
  O  O2406  1  0.32822020  0.32475060  0.21876560  1
  O  O2407  1  0.32822020  0.32475060  0.41876560  1
  O  O2408  1  0.32822020  0.32475060  0.61876560  1
  O  O2409  1  0.32822020  0.32475060  0.81876560  1
  O  O2410  1  0.32822020  0.52475060  0.01876560  1
  O  O2411  1  0.32822020  0.52475060  0.21876560  1
  O  O2412  1  0.32822020  0.52475060  0.41876560  1
  O  O2413  1  0.32822020  0.52475060  0.61876560  1
  O  O2414  1  0.32822020  0.52475060  0.81876560  1
  O  O2415  1  0.32822020  0.72475060  0.01876560  1
  O  O2416  1  0.32822020  0.72475060  0.21876560  1
  O  O2417  1  0.32822020  0.72475060  0.41876560  1
  O  O2418  1  0.32822020  0.72475060  0.61876560  1
  O  O2419  1  0.32822020  0.72475060  0.81876560  1
  O  O2420  1  0.32822020  0.92475060  0.01876560  1
  O  O2421  1  0.32822020  0.92475060  0.21876560  1
  O  O2422  1  0.32822020  0.92475060  0.41876560  1
  O  O2423  1  0.32822020  0.92475060  0.61876560  1
  O  O2424  1  0.32822020  0.92475060  0.81876560  1
  O  O2425  1  0.52822020  0.12475060  0.01876560  1
  O  O2426  1  0.52822020  0.12475060  0.21876560  1
  O  O2427  1  0.52822020  0.12475060  0.41876560  1
  O  O2428  1  0.52822020  0.12475060  0.61876560  1
  O  O2429  1  0.52822020  0.12475060  0.81876560  1
  O  O2430  1  0.52822020  0.32475060  0.01876560  1
  O  O2431  1  0.52822020  0.32475060  0.21876560  1
  O  O2432  1  0.52822020  0.32475060  0.41876560  1
  O  O2433  1  0.52822020  0.32475060  0.61876560  1
  O  O2434  1  0.52822020  0.32475060  0.81876560  1
  O  O2435  1  0.52822020  0.52475060  0.01876560  1
  O  O2436  1  0.52822020  0.52475060  0.21876560  1
  O  O2437  1  0.52822020  0.52475060  0.41876560  1
  O  O2438  1  0.52822020  0.52475060  0.61876560  1
  O  O2439  1  0.52822020  0.52475060  0.81876560  1
  O  O2440  1  0.52822020  0.72475060  0.01876560  1
  O  O2441  1  0.52822020  0.72475060  0.21876560  1
  O  O2442  1  0.52822020  0.72475060  0.41876560  1
  O  O2443  1  0.52822020  0.72475060  0.61876560  1
  O  O2444  1  0.52822020  0.72475060  0.81876560  1
  O  O2445  1  0.52822020  0.92475060  0.01876560  1
  O  O2446  1  0.52822020  0.92475060  0.21876560  1
  O  O2447  1  0.52822020  0.92475060  0.41876560  1
  O  O2448  1  0.52822020  0.92475060  0.61876560  1
  O  O2449  1  0.52822020  0.92475060  0.81876560  1
  O  O2450  1  0.72822020  0.12475060  0.01876560  1
  O  O2451  1  0.72822020  0.12475060  0.21876560  1
  O  O2452  1  0.72822020  0.12475060  0.41876560  1
  O  O2453  1  0.72822020  0.12475060  0.61876560  1
  O  O2454  1  0.72822020  0.12475060  0.81876560  1
  O  O2455  1  0.72822020  0.32475060  0.01876560  1
  O  O2456  1  0.72822020  0.32475060  0.21876560  1
  O  O2457  1  0.72822020  0.32475060  0.41876560  1
  O  O2458  1  0.72822020  0.32475060  0.61876560  1
  O  O2459  1  0.72822020  0.32475060  0.81876560  1
  O  O2460  1  0.72822020  0.52475060  0.01876560  1
  O  O2461  1  0.72822020  0.52475060  0.21876560  1
  O  O2462  1  0.72822020  0.52475060  0.41876560  1
  O  O2463  1  0.72822020  0.52475060  0.61876560  1
  O  O2464  1  0.72822020  0.52475060  0.81876560  1
  O  O2465  1  0.72822020  0.72475060  0.01876560  1
  O  O2466  1  0.72822020  0.72475060  0.21876560  1
  O  O2467  1  0.72822020  0.72475060  0.41876560  1
  O  O2468  1  0.72822020  0.72475060  0.61876560  1
  O  O2469  1  0.72822020  0.72475060  0.81876560  1
  O  O2470  1  0.72822020  0.92475060  0.01876560  1
  O  O2471  1  0.72822020  0.92475060  0.21876560  1
  O  O2472  1  0.72822020  0.92475060  0.41876560  1
  O  O2473  1  0.72822020  0.92475060  0.61876560  1
  O  O2474  1  0.72822020  0.92475060  0.81876560  1
  O  O2475  1  0.92822020  0.12475060  0.01876560  1
  O  O2476  1  0.92822020  0.12475060  0.21876560  1
  O  O2477  1  0.92822020  0.12475060  0.41876560  1
  O  O2478  1  0.92822020  0.12475060  0.61876560  1
  O  O2479  1  0.92822020  0.12475060  0.81876560  1
  O  O2480  1  0.92822020  0.32475060  0.01876560  1
  O  O2481  1  0.92822020  0.32475060  0.21876560  1
  O  O2482  1  0.92822020  0.32475060  0.41876560  1
  O  O2483  1  0.92822020  0.32475060  0.61876560  1
  O  O2484  1  0.92822020  0.32475060  0.81876560  1
  O  O2485  1  0.92822020  0.52475060  0.01876560  1
  O  O2486  1  0.92822020  0.52475060  0.21876560  1
  O  O2487  1  0.92822020  0.52475060  0.41876560  1
  O  O2488  1  0.92822020  0.52475060  0.61876560  1
  O  O2489  1  0.92822020  0.52475060  0.81876560  1
  O  O2490  1  0.92822020  0.72475060  0.01876560  1
  O  O2491  1  0.92822020  0.72475060  0.21876560  1
  O  O2492  1  0.92822020  0.72475060  0.41876560  1
  O  O2493  1  0.92822020  0.72475060  0.61876560  1
  O  O2494  1  0.92822020  0.72475060  0.81876560  1
  O  O2495  1  0.92822020  0.92475060  0.01876560  1
  O  O2496  1  0.92822020  0.92475060  0.21876560  1
  O  O2497  1  0.92822020  0.92475060  0.41876560  1
  O  O2498  1  0.92822020  0.92475060  0.61876560  1
  O  O2499  1  0.92822020  0.92475060  0.81876560  1
  O  O2500  1  0.02823780  0.02475460  0.02823780  1
  O  O2501  1  0.02823780  0.02475460  0.22823780  1
  O  O2502  1  0.02823780  0.02475460  0.42823780  1
  O  O2503  1  0.02823780  0.02475460  0.62823780  1
  O  O2504  1  0.02823780  0.02475460  0.82823780  1
  O  O2505  1  0.02823780  0.22475460  0.02823780  1
  O  O2506  1  0.02823780  0.22475460  0.22823780  1
  O  O2507  1  0.02823780  0.22475460  0.42823780  1
  O  O2508  1  0.02823780  0.22475460  0.62823780  1
  O  O2509  1  0.02823780  0.22475460  0.82823780  1
  O  O2510  1  0.02823780  0.42475460  0.02823780  1
  O  O2511  1  0.02823780  0.42475460  0.22823780  1
  O  O2512  1  0.02823780  0.42475460  0.42823780  1
  O  O2513  1  0.02823780  0.42475460  0.62823780  1
  O  O2514  1  0.02823780  0.42475460  0.82823780  1
  O  O2515  1  0.02823780  0.62475460  0.02823780  1
  O  O2516  1  0.02823780  0.62475460  0.22823780  1
  O  O2517  1  0.02823780  0.62475460  0.42823780  1
  O  O2518  1  0.02823780  0.62475460  0.62823780  1
  O  O2519  1  0.02823780  0.62475460  0.82823780  1
  O  O2520  1  0.02823780  0.82475460  0.02823780  1
  O  O2521  1  0.02823780  0.82475460  0.22823780  1
  O  O2522  1  0.02823780  0.82475460  0.42823780  1
  O  O2523  1  0.02823780  0.82475460  0.62823780  1
  O  O2524  1  0.02823780  0.82475460  0.82823780  1
  O  O2525  1  0.22823780  0.02475460  0.02823780  1
  O  O2526  1  0.22823780  0.02475460  0.22823780  1
  O  O2527  1  0.22823780  0.02475460  0.42823780  1
  O  O2528  1  0.22823780  0.02475460  0.62823780  1
  O  O2529  1  0.22823780  0.02475460  0.82823780  1
  O  O2530  1  0.22823780  0.22475460  0.02823780  1
  O  O2531  1  0.22823780  0.22475460  0.22823780  1
  O  O2532  1  0.22823780  0.22475460  0.42823780  1
  O  O2533  1  0.22823780  0.22475460  0.62823780  1
  O  O2534  1  0.22823780  0.22475460  0.82823780  1
  O  O2535  1  0.22823780  0.42475460  0.02823780  1
  O  O2536  1  0.22823780  0.42475460  0.22823780  1
  O  O2537  1  0.22823780  0.42475460  0.42823780  1
  O  O2538  1  0.22823780  0.42475460  0.62823780  1
  O  O2539  1  0.22823780  0.42475460  0.82823780  1
  O  O2540  1  0.22823780  0.62475460  0.02823780  1
  O  O2541  1  0.22823780  0.62475460  0.22823780  1
  O  O2542  1  0.22823780  0.62475460  0.42823780  1
  O  O2543  1  0.22823780  0.62475460  0.62823780  1
  O  O2544  1  0.22823780  0.62475460  0.82823780  1
  O  O2545  1  0.22823780  0.82475460  0.02823780  1
  O  O2546  1  0.22823780  0.82475460  0.22823780  1
  O  O2547  1  0.22823780  0.82475460  0.42823780  1
  O  O2548  1  0.22823780  0.82475460  0.62823780  1
  O  O2549  1  0.22823780  0.82475460  0.82823780  1
  O  O2550  1  0.42823780  0.02475460  0.02823780  1
  O  O2551  1  0.42823780  0.02475460  0.22823780  1
  O  O2552  1  0.42823780  0.02475460  0.42823780  1
  O  O2553  1  0.42823780  0.02475460  0.62823780  1
  O  O2554  1  0.42823780  0.02475460  0.82823780  1
  O  O2555  1  0.42823780  0.22475460  0.02823780  1
  O  O2556  1  0.42823780  0.22475460  0.22823780  1
  O  O2557  1  0.42823780  0.22475460  0.42823780  1
  O  O2558  1  0.42823780  0.22475460  0.62823780  1
  O  O2559  1  0.42823780  0.22475460  0.82823780  1
  O  O2560  1  0.42823780  0.42475460  0.02823780  1
  O  O2561  1  0.42823780  0.42475460  0.22823780  1
  O  O2562  1  0.42823780  0.42475460  0.42823780  1
  O  O2563  1  0.42823780  0.42475460  0.62823780  1
  O  O2564  1  0.42823780  0.42475460  0.82823780  1
  O  O2565  1  0.42823780  0.62475460  0.02823780  1
  O  O2566  1  0.42823780  0.62475460  0.22823780  1
  O  O2567  1  0.42823780  0.62475460  0.42823780  1
  O  O2568  1  0.42823780  0.62475460  0.62823780  1
  O  O2569  1  0.42823780  0.62475460  0.82823780  1
  O  O2570  1  0.42823780  0.82475460  0.02823780  1
  O  O2571  1  0.42823780  0.82475460  0.22823780  1
  O  O2572  1  0.42823780  0.82475460  0.42823780  1
  O  O2573  1  0.42823780  0.82475460  0.62823780  1
  O  O2574  1  0.42823780  0.82475460  0.82823780  1
  O  O2575  1  0.62823780  0.02475460  0.02823780  1
  O  O2576  1  0.62823780  0.02475460  0.22823780  1
  O  O2577  1  0.62823780  0.02475460  0.42823780  1
  O  O2578  1  0.62823780  0.02475460  0.62823780  1
  O  O2579  1  0.62823780  0.02475460  0.82823780  1
  O  O2580  1  0.62823780  0.22475460  0.02823780  1
  O  O2581  1  0.62823780  0.22475460  0.22823780  1
  O  O2582  1  0.62823780  0.22475460  0.42823780  1
  O  O2583  1  0.62823780  0.22475460  0.62823780  1
  O  O2584  1  0.62823780  0.22475460  0.82823780  1
  O  O2585  1  0.62823780  0.42475460  0.02823780  1
  O  O2586  1  0.62823780  0.42475460  0.22823780  1
  O  O2587  1  0.62823780  0.42475460  0.42823780  1
  O  O2588  1  0.62823780  0.42475460  0.62823780  1
  O  O2589  1  0.62823780  0.42475460  0.82823780  1
  O  O2590  1  0.62823780  0.62475460  0.02823780  1
  O  O2591  1  0.62823780  0.62475460  0.22823780  1
  O  O2592  1  0.62823780  0.62475460  0.42823780  1
  O  O2593  1  0.62823780  0.62475460  0.62823780  1
  O  O2594  1  0.62823780  0.62475460  0.82823780  1
  O  O2595  1  0.62823780  0.82475460  0.02823780  1
  O  O2596  1  0.62823780  0.82475460  0.22823780  1
  O  O2597  1  0.62823780  0.82475460  0.42823780  1
  O  O2598  1  0.62823780  0.82475460  0.62823780  1
  O  O2599  1  0.62823780  0.82475460  0.82823780  1
  O  O2600  1  0.82823780  0.02475460  0.02823780  1
  O  O2601  1  0.82823780  0.02475460  0.22823780  1
  O  O2602  1  0.82823780  0.02475460  0.42823780  1
  O  O2603  1  0.82823780  0.02475460  0.62823780  1
  O  O2604  1  0.82823780  0.02475460  0.82823780  1
  O  O2605  1  0.82823780  0.22475460  0.02823780  1
  O  O2606  1  0.82823780  0.22475460  0.22823780  1
  O  O2607  1  0.82823780  0.22475460  0.42823780  1
  O  O2608  1  0.82823780  0.22475460  0.62823780  1
  O  O2609  1  0.82823780  0.22475460  0.82823780  1
  O  O2610  1  0.82823780  0.42475460  0.02823780  1
  O  O2611  1  0.82823780  0.42475460  0.22823780  1
  O  O2612  1  0.82823780  0.42475460  0.42823780  1
  O  O2613  1  0.82823780  0.42475460  0.62823780  1
  O  O2614  1  0.82823780  0.42475460  0.82823780  1
  O  O2615  1  0.82823780  0.62475460  0.02823780  1
  O  O2616  1  0.82823780  0.62475460  0.22823780  1
  O  O2617  1  0.82823780  0.62475460  0.42823780  1
  O  O2618  1  0.82823780  0.62475460  0.62823780  1
  O  O2619  1  0.82823780  0.62475460  0.82823780  1
  O  O2620  1  0.82823780  0.82475460  0.02823780  1
  O  O2621  1  0.82823780  0.82475460  0.22823780  1
  O  O2622  1  0.82823780  0.82475460  0.42823780  1
  O  O2623  1  0.82823780  0.82475460  0.62823780  1
  O  O2624  1  0.82823780  0.82475460  0.82823780  1
  O  O2625  1  0.12822060  0.12478720  0.12821740  1
  O  O2626  1  0.12822060  0.12478720  0.32821740  1
  O  O2627  1  0.12822060  0.12478720  0.52821740  1
  O  O2628  1  0.12822060  0.12478720  0.72821740  1
  O  O2629  1  0.12822060  0.12478720  0.92821740  1
  O  O2630  1  0.12822060  0.32478720  0.12821740  1
  O  O2631  1  0.12822060  0.32478720  0.32821740  1
  O  O2632  1  0.12822060  0.32478720  0.52821740  1
  O  O2633  1  0.12822060  0.32478720  0.72821740  1
  O  O2634  1  0.12822060  0.32478720  0.92821740  1
  O  O2635  1  0.12822060  0.52478720  0.12821740  1
  O  O2636  1  0.12822060  0.52478720  0.32821740  1
  O  O2637  1  0.12822060  0.52478720  0.52821740  1
  O  O2638  1  0.12822060  0.52478720  0.72821740  1
  O  O2639  1  0.12822060  0.52478720  0.92821740  1
  O  O2640  1  0.12822060  0.72478720  0.12821740  1
  O  O2641  1  0.12822060  0.72478720  0.32821740  1
  O  O2642  1  0.12822060  0.72478720  0.52821740  1
  O  O2643  1  0.12822060  0.72478720  0.72821740  1
  O  O2644  1  0.12822060  0.72478720  0.92821740  1
  O  O2645  1  0.12822060  0.92478720  0.12821740  1
  O  O2646  1  0.12822060  0.92478720  0.32821740  1
  O  O2647  1  0.12822060  0.92478720  0.52821740  1
  O  O2648  1  0.12822060  0.92478720  0.72821740  1
  O  O2649  1  0.12822060  0.92478720  0.92821740  1
  O  O2650  1  0.32822060  0.12478720  0.12821740  1
  O  O2651  1  0.32822060  0.12478720  0.32821740  1
  O  O2652  1  0.32822060  0.12478720  0.52821740  1
  O  O2653  1  0.32822060  0.12478720  0.72821740  1
  O  O2654  1  0.32822060  0.12478720  0.92821740  1
  O  O2655  1  0.32822060  0.32478720  0.12821740  1
  O  O2656  1  0.32822060  0.32478720  0.32821740  1
  O  O2657  1  0.32822060  0.32478720  0.52821740  1
  O  O2658  1  0.32822060  0.32478720  0.72821740  1
  O  O2659  1  0.32822060  0.32478720  0.92821740  1
  O  O2660  1  0.32822060  0.52478720  0.12821740  1
  O  O2661  1  0.32822060  0.52478720  0.32821740  1
  O  O2662  1  0.32822060  0.52478720  0.52821740  1
  O  O2663  1  0.32822060  0.52478720  0.72821740  1
  O  O2664  1  0.32822060  0.52478720  0.92821740  1
  O  O2665  1  0.32822060  0.72478720  0.12821740  1
  O  O2666  1  0.32822060  0.72478720  0.32821740  1
  O  O2667  1  0.32822060  0.72478720  0.52821740  1
  O  O2668  1  0.32822060  0.72478720  0.72821740  1
  O  O2669  1  0.32822060  0.72478720  0.92821740  1
  O  O2670  1  0.32822060  0.92478720  0.12821740  1
  O  O2671  1  0.32822060  0.92478720  0.32821740  1
  O  O2672  1  0.32822060  0.92478720  0.52821740  1
  O  O2673  1  0.32822060  0.92478720  0.72821740  1
  O  O2674  1  0.32822060  0.92478720  0.92821740  1
  O  O2675  1  0.52822060  0.12478720  0.12821740  1
  O  O2676  1  0.52822060  0.12478720  0.32821740  1
  O  O2677  1  0.52822060  0.12478720  0.52821740  1
  O  O2678  1  0.52822060  0.12478720  0.72821740  1
  O  O2679  1  0.52822060  0.12478720  0.92821740  1
  O  O2680  1  0.52822060  0.32478720  0.12821740  1
  O  O2681  1  0.52822060  0.32478720  0.32821740  1
  O  O2682  1  0.52822060  0.32478720  0.52821740  1
  O  O2683  1  0.52822060  0.32478720  0.72821740  1
  O  O2684  1  0.52822060  0.32478720  0.92821740  1
  O  O2685  1  0.52822060  0.52478720  0.12821740  1
  O  O2686  1  0.52822060  0.52478720  0.32821740  1
  O  O2687  1  0.52822060  0.52478720  0.52821740  1
  O  O2688  1  0.52822060  0.52478720  0.72821740  1
  O  O2689  1  0.52822060  0.52478720  0.92821740  1
  O  O2690  1  0.52822060  0.72478720  0.12821740  1
  O  O2691  1  0.52822060  0.72478720  0.32821740  1
  O  O2692  1  0.52822060  0.72478720  0.52821740  1
  O  O2693  1  0.52822060  0.72478720  0.72821740  1
  O  O2694  1  0.52822060  0.72478720  0.92821740  1
  O  O2695  1  0.52822060  0.92478720  0.12821740  1
  O  O2696  1  0.52822060  0.92478720  0.32821740  1
  O  O2697  1  0.52822060  0.92478720  0.52821740  1
  O  O2698  1  0.52822060  0.92478720  0.72821740  1
  O  O2699  1  0.52822060  0.92478720  0.92821740  1
  O  O2700  1  0.72822060  0.12478720  0.12821740  1
  O  O2701  1  0.72822060  0.12478720  0.32821740  1
  O  O2702  1  0.72822060  0.12478720  0.52821740  1
  O  O2703  1  0.72822060  0.12478720  0.72821740  1
  O  O2704  1  0.72822060  0.12478720  0.92821740  1
  O  O2705  1  0.72822060  0.32478720  0.12821740  1
  O  O2706  1  0.72822060  0.32478720  0.32821740  1
  O  O2707  1  0.72822060  0.32478720  0.52821740  1
  O  O2708  1  0.72822060  0.32478720  0.72821740  1
  O  O2709  1  0.72822060  0.32478720  0.92821740  1
  O  O2710  1  0.72822060  0.52478720  0.12821740  1
  O  O2711  1  0.72822060  0.52478720  0.32821740  1
  O  O2712  1  0.72822060  0.52478720  0.52821740  1
  O  O2713  1  0.72822060  0.52478720  0.72821740  1
  O  O2714  1  0.72822060  0.52478720  0.92821740  1
  O  O2715  1  0.72822060  0.72478720  0.12821740  1
  O  O2716  1  0.72822060  0.72478720  0.32821740  1
  O  O2717  1  0.72822060  0.72478720  0.52821740  1
  O  O2718  1  0.72822060  0.72478720  0.72821740  1
  O  O2719  1  0.72822060  0.72478720  0.92821740  1
  O  O2720  1  0.72822060  0.92478720  0.12821740  1
  O  O2721  1  0.72822060  0.92478720  0.32821740  1
  O  O2722  1  0.72822060  0.92478720  0.52821740  1
  O  O2723  1  0.72822060  0.92478720  0.72821740  1
  O  O2724  1  0.72822060  0.92478720  0.92821740  1
  O  O2725  1  0.92822060  0.12478720  0.12821740  1
  O  O2726  1  0.92822060  0.12478720  0.32821740  1
  O  O2727  1  0.92822060  0.12478720  0.52821740  1
  O  O2728  1  0.92822060  0.12478720  0.72821740  1
  O  O2729  1  0.92822060  0.12478720  0.92821740  1
  O  O2730  1  0.92822060  0.32478720  0.12821740  1
  O  O2731  1  0.92822060  0.32478720  0.32821740  1
  O  O2732  1  0.92822060  0.32478720  0.52821740  1
  O  O2733  1  0.92822060  0.32478720  0.72821740  1
  O  O2734  1  0.92822060  0.32478720  0.92821740  1
  O  O2735  1  0.92822060  0.52478720  0.12821740  1
  O  O2736  1  0.92822060  0.52478720  0.32821740  1
  O  O2737  1  0.92822060  0.52478720  0.52821740  1
  O  O2738  1  0.92822060  0.52478720  0.72821740  1
  O  O2739  1  0.92822060  0.52478720  0.92821740  1
  O  O2740  1  0.92822060  0.72478720  0.12821740  1
  O  O2741  1  0.92822060  0.72478720  0.32821740  1
  O  O2742  1  0.92822060  0.72478720  0.52821740  1
  O  O2743  1  0.92822060  0.72478720  0.72821740  1
  O  O2744  1  0.92822060  0.72478720  0.92821740  1
  O  O2745  1  0.92822060  0.92478720  0.12821740  1
  O  O2746  1  0.92822060  0.92478720  0.32821740  1
  O  O2747  1  0.92822060  0.92478720  0.52821740  1
  O  O2748  1  0.92822060  0.92478720  0.72821740  1
  O  O2749  1  0.92822060  0.92478720  0.92821740  1
  O  O2750  1  0.07177940  0.07521300  0.07178260  1
  O  O2751  1  0.07177940  0.07521300  0.27178260  1
  O  O2752  1  0.07177940  0.07521300  0.47178260  1
  O  O2753  1  0.07177940  0.07521300  0.67178260  1
  O  O2754  1  0.07177940  0.07521300  0.87178260  1
  O  O2755  1  0.07177940  0.27521300  0.07178260  1
  O  O2756  1  0.07177940  0.27521300  0.27178260  1
  O  O2757  1  0.07177940  0.27521300  0.47178260  1
  O  O2758  1  0.07177940  0.27521300  0.67178260  1
  O  O2759  1  0.07177940  0.27521300  0.87178260  1
  O  O2760  1  0.07177940  0.47521300  0.07178260  1
  O  O2761  1  0.07177940  0.47521300  0.27178260  1
  O  O2762  1  0.07177940  0.47521300  0.47178260  1
  O  O2763  1  0.07177940  0.47521300  0.67178260  1
  O  O2764  1  0.07177940  0.47521300  0.87178260  1
  O  O2765  1  0.07177940  0.67521300  0.07178260  1
  O  O2766  1  0.07177940  0.67521300  0.27178260  1
  O  O2767  1  0.07177940  0.67521300  0.47178260  1
  O  O2768  1  0.07177940  0.67521300  0.67178260  1
  O  O2769  1  0.07177940  0.67521300  0.87178260  1
  O  O2770  1  0.07177940  0.87521300  0.07178260  1
  O  O2771  1  0.07177940  0.87521300  0.27178260  1
  O  O2772  1  0.07177940  0.87521300  0.47178260  1
  O  O2773  1  0.07177940  0.87521300  0.67178260  1
  O  O2774  1  0.07177940  0.87521300  0.87178260  1
  O  O2775  1  0.27177940  0.07521300  0.07178260  1
  O  O2776  1  0.27177940  0.07521300  0.27178260  1
  O  O2777  1  0.27177940  0.07521300  0.47178260  1
  O  O2778  1  0.27177940  0.07521300  0.67178260  1
  O  O2779  1  0.27177940  0.07521300  0.87178260  1
  O  O2780  1  0.27177940  0.27521300  0.07178260  1
  O  O2781  1  0.27177940  0.27521300  0.27178260  1
  O  O2782  1  0.27177940  0.27521300  0.47178260  1
  O  O2783  1  0.27177940  0.27521300  0.67178260  1
  O  O2784  1  0.27177940  0.27521300  0.87178260  1
  O  O2785  1  0.27177940  0.47521300  0.07178260  1
  O  O2786  1  0.27177940  0.47521300  0.27178260  1
  O  O2787  1  0.27177940  0.47521300  0.47178260  1
  O  O2788  1  0.27177940  0.47521300  0.67178260  1
  O  O2789  1  0.27177940  0.47521300  0.87178260  1
  O  O2790  1  0.27177940  0.67521300  0.07178260  1
  O  O2791  1  0.27177940  0.67521300  0.27178260  1
  O  O2792  1  0.27177940  0.67521300  0.47178260  1
  O  O2793  1  0.27177940  0.67521300  0.67178260  1
  O  O2794  1  0.27177940  0.67521300  0.87178260  1
  O  O2795  1  0.27177940  0.87521300  0.07178260  1
  O  O2796  1  0.27177940  0.87521300  0.27178260  1
  O  O2797  1  0.27177940  0.87521300  0.47178260  1
  O  O2798  1  0.27177940  0.87521300  0.67178260  1
  O  O2799  1  0.27177940  0.87521300  0.87178260  1
  O  O2800  1  0.47177940  0.07521300  0.07178260  1
  O  O2801  1  0.47177940  0.07521300  0.27178260  1
  O  O2802  1  0.47177940  0.07521300  0.47178260  1
  O  O2803  1  0.47177940  0.07521300  0.67178260  1
  O  O2804  1  0.47177940  0.07521300  0.87178260  1
  O  O2805  1  0.47177940  0.27521300  0.07178260  1
  O  O2806  1  0.47177940  0.27521300  0.27178260  1
  O  O2807  1  0.47177940  0.27521300  0.47178260  1
  O  O2808  1  0.47177940  0.27521300  0.67178260  1
  O  O2809  1  0.47177940  0.27521300  0.87178260  1
  O  O2810  1  0.47177940  0.47521300  0.07178260  1
  O  O2811  1  0.47177940  0.47521300  0.27178260  1
  O  O2812  1  0.47177940  0.47521300  0.47178260  1
  O  O2813  1  0.47177940  0.47521300  0.67178260  1
  O  O2814  1  0.47177940  0.47521300  0.87178260  1
  O  O2815  1  0.47177940  0.67521300  0.07178260  1
  O  O2816  1  0.47177940  0.67521300  0.27178260  1
  O  O2817  1  0.47177940  0.67521300  0.47178260  1
  O  O2818  1  0.47177940  0.67521300  0.67178260  1
  O  O2819  1  0.47177940  0.67521300  0.87178260  1
  O  O2820  1  0.47177940  0.87521300  0.07178260  1
  O  O2821  1  0.47177940  0.87521300  0.27178260  1
  O  O2822  1  0.47177940  0.87521300  0.47178260  1
  O  O2823  1  0.47177940  0.87521300  0.67178260  1
  O  O2824  1  0.47177940  0.87521300  0.87178260  1
  O  O2825  1  0.67177940  0.07521300  0.07178260  1
  O  O2826  1  0.67177940  0.07521300  0.27178260  1
  O  O2827  1  0.67177940  0.07521300  0.47178260  1
  O  O2828  1  0.67177940  0.07521300  0.67178260  1
  O  O2829  1  0.67177940  0.07521300  0.87178260  1
  O  O2830  1  0.67177940  0.27521300  0.07178260  1
  O  O2831  1  0.67177940  0.27521300  0.27178260  1
  O  O2832  1  0.67177940  0.27521300  0.47178260  1
  O  O2833  1  0.67177940  0.27521300  0.67178260  1
  O  O2834  1  0.67177940  0.27521300  0.87178260  1
  O  O2835  1  0.67177940  0.47521300  0.07178260  1
  O  O2836  1  0.67177940  0.47521300  0.27178260  1
  O  O2837  1  0.67177940  0.47521300  0.47178260  1
  O  O2838  1  0.67177940  0.47521300  0.67178260  1
  O  O2839  1  0.67177940  0.47521300  0.87178260  1
  O  O2840  1  0.67177940  0.67521300  0.07178260  1
  O  O2841  1  0.67177940  0.67521300  0.27178260  1
  O  O2842  1  0.67177940  0.67521300  0.47178260  1
  O  O2843  1  0.67177940  0.67521300  0.67178260  1
  O  O2844  1  0.67177940  0.67521300  0.87178260  1
  O  O2845  1  0.67177940  0.87521300  0.07178260  1
  O  O2846  1  0.67177940  0.87521300  0.27178260  1
  O  O2847  1  0.67177940  0.87521300  0.47178260  1
  O  O2848  1  0.67177940  0.87521300  0.67178260  1
  O  O2849  1  0.67177940  0.87521300  0.87178260  1
  O  O2850  1  0.87177940  0.07521300  0.07178260  1
  O  O2851  1  0.87177940  0.07521300  0.27178260  1
  O  O2852  1  0.87177940  0.07521300  0.47178260  1
  O  O2853  1  0.87177940  0.07521300  0.67178260  1
  O  O2854  1  0.87177940  0.07521300  0.87178260  1
  O  O2855  1  0.87177940  0.27521300  0.07178260  1
  O  O2856  1  0.87177940  0.27521300  0.27178260  1
  O  O2857  1  0.87177940  0.27521300  0.47178260  1
  O  O2858  1  0.87177940  0.27521300  0.67178260  1
  O  O2859  1  0.87177940  0.27521300  0.87178260  1
  O  O2860  1  0.87177940  0.47521300  0.07178260  1
  O  O2861  1  0.87177940  0.47521300  0.27178260  1
  O  O2862  1  0.87177940  0.47521300  0.47178260  1
  O  O2863  1  0.87177940  0.47521300  0.67178260  1
  O  O2864  1  0.87177940  0.47521300  0.87178260  1
  O  O2865  1  0.87177940  0.67521300  0.07178260  1
  O  O2866  1  0.87177940  0.67521300  0.27178260  1
  O  O2867  1  0.87177940  0.67521300  0.47178260  1
  O  O2868  1  0.87177940  0.67521300  0.67178260  1
  O  O2869  1  0.87177940  0.67521300  0.87178260  1
  O  O2870  1  0.87177940  0.87521300  0.07178260  1
  O  O2871  1  0.87177940  0.87521300  0.27178260  1
  O  O2872  1  0.87177940  0.87521300  0.47178260  1
  O  O2873  1  0.87177940  0.87521300  0.67178260  1
  O  O2874  1  0.87177940  0.87521300  0.87178260  1
  O  O2875  1  0.17176220  0.17524540  0.17176200  1
  O  O2876  1  0.17176220  0.17524540  0.37176200  1
  O  O2877  1  0.17176220  0.17524540  0.57176200  1
  O  O2878  1  0.17176220  0.17524540  0.77176200  1
  O  O2879  1  0.17176220  0.17524540  0.97176200  1
  O  O2880  1  0.17176220  0.37524540  0.17176200  1
  O  O2881  1  0.17176220  0.37524540  0.37176200  1
  O  O2882  1  0.17176220  0.37524540  0.57176200  1
  O  O2883  1  0.17176220  0.37524540  0.77176200  1
  O  O2884  1  0.17176220  0.37524540  0.97176200  1
  O  O2885  1  0.17176220  0.57524540  0.17176200  1
  O  O2886  1  0.17176220  0.57524540  0.37176200  1
  O  O2887  1  0.17176220  0.57524540  0.57176200  1
  O  O2888  1  0.17176220  0.57524540  0.77176200  1
  O  O2889  1  0.17176220  0.57524540  0.97176200  1
  O  O2890  1  0.17176220  0.77524540  0.17176200  1
  O  O2891  1  0.17176220  0.77524540  0.37176200  1
  O  O2892  1  0.17176220  0.77524540  0.57176200  1
  O  O2893  1  0.17176220  0.77524540  0.77176200  1
  O  O2894  1  0.17176220  0.77524540  0.97176200  1
  O  O2895  1  0.17176220  0.97524540  0.17176200  1
  O  O2896  1  0.17176220  0.97524540  0.37176200  1
  O  O2897  1  0.17176220  0.97524540  0.57176200  1
  O  O2898  1  0.17176220  0.97524540  0.77176200  1
  O  O2899  1  0.17176220  0.97524540  0.97176200  1
  O  O2900  1  0.37176220  0.17524540  0.17176200  1
  O  O2901  1  0.37176220  0.17524540  0.37176200  1
  O  O2902  1  0.37176220  0.17524540  0.57176200  1
  O  O2903  1  0.37176220  0.17524540  0.77176200  1
  O  O2904  1  0.37176220  0.17524540  0.97176200  1
  O  O2905  1  0.37176220  0.37524540  0.17176200  1
  O  O2906  1  0.37176220  0.37524540  0.37176200  1
  O  O2907  1  0.37176220  0.37524540  0.57176200  1
  O  O2908  1  0.37176220  0.37524540  0.77176200  1
  O  O2909  1  0.37176220  0.37524540  0.97176200  1
  O  O2910  1  0.37176220  0.57524540  0.17176200  1
  O  O2911  1  0.37176220  0.57524540  0.37176200  1
  O  O2912  1  0.37176220  0.57524540  0.57176200  1
  O  O2913  1  0.37176220  0.57524540  0.77176200  1
  O  O2914  1  0.37176220  0.57524540  0.97176200  1
  O  O2915  1  0.37176220  0.77524540  0.17176200  1
  O  O2916  1  0.37176220  0.77524540  0.37176200  1
  O  O2917  1  0.37176220  0.77524540  0.57176200  1
  O  O2918  1  0.37176220  0.77524540  0.77176200  1
  O  O2919  1  0.37176220  0.77524540  0.97176200  1
  O  O2920  1  0.37176220  0.97524540  0.17176200  1
  O  O2921  1  0.37176220  0.97524540  0.37176200  1
  O  O2922  1  0.37176220  0.97524540  0.57176200  1
  O  O2923  1  0.37176220  0.97524540  0.77176200  1
  O  O2924  1  0.37176220  0.97524540  0.97176200  1
  O  O2925  1  0.57176220  0.17524540  0.17176200  1
  O  O2926  1  0.57176220  0.17524540  0.37176200  1
  O  O2927  1  0.57176220  0.17524540  0.57176200  1
  O  O2928  1  0.57176220  0.17524540  0.77176200  1
  O  O2929  1  0.57176220  0.17524540  0.97176200  1
  O  O2930  1  0.57176220  0.37524540  0.17176200  1
  O  O2931  1  0.57176220  0.37524540  0.37176200  1
  O  O2932  1  0.57176220  0.37524540  0.57176200  1
  O  O2933  1  0.57176220  0.37524540  0.77176200  1
  O  O2934  1  0.57176220  0.37524540  0.97176200  1
  O  O2935  1  0.57176220  0.57524540  0.17176200  1
  O  O2936  1  0.57176220  0.57524540  0.37176200  1
  O  O2937  1  0.57176220  0.57524540  0.57176200  1
  O  O2938  1  0.57176220  0.57524540  0.77176200  1
  O  O2939  1  0.57176220  0.57524540  0.97176200  1
  O  O2940  1  0.57176220  0.77524540  0.17176200  1
  O  O2941  1  0.57176220  0.77524540  0.37176200  1
  O  O2942  1  0.57176220  0.77524540  0.57176200  1
  O  O2943  1  0.57176220  0.77524540  0.77176200  1
  O  O2944  1  0.57176220  0.77524540  0.97176200  1
  O  O2945  1  0.57176220  0.97524540  0.17176200  1
  O  O2946  1  0.57176220  0.97524540  0.37176200  1
  O  O2947  1  0.57176220  0.97524540  0.57176200  1
  O  O2948  1  0.57176220  0.97524540  0.77176200  1
  O  O2949  1  0.57176220  0.97524540  0.97176200  1
  O  O2950  1  0.77176220  0.17524540  0.17176200  1
  O  O2951  1  0.77176220  0.17524540  0.37176200  1
  O  O2952  1  0.77176220  0.17524540  0.57176200  1
  O  O2953  1  0.77176220  0.17524540  0.77176200  1
  O  O2954  1  0.77176220  0.17524540  0.97176200  1
  O  O2955  1  0.77176220  0.37524540  0.17176200  1
  O  O2956  1  0.77176220  0.37524540  0.37176200  1
  O  O2957  1  0.77176220  0.37524540  0.57176200  1
  O  O2958  1  0.77176220  0.37524540  0.77176200  1
  O  O2959  1  0.77176220  0.37524540  0.97176200  1
  O  O2960  1  0.77176220  0.57524540  0.17176200  1
  O  O2961  1  0.77176220  0.57524540  0.37176200  1
  O  O2962  1  0.77176220  0.57524540  0.57176200  1
  O  O2963  1  0.77176220  0.57524540  0.77176200  1
  O  O2964  1  0.77176220  0.57524540  0.97176200  1
  O  O2965  1  0.77176220  0.77524540  0.17176200  1
  O  O2966  1  0.77176220  0.77524540  0.37176200  1
  O  O2967  1  0.77176220  0.77524540  0.57176200  1
  O  O2968  1  0.77176220  0.77524540  0.77176200  1
  O  O2969  1  0.77176220  0.77524540  0.97176200  1
  O  O2970  1  0.77176220  0.97524540  0.17176200  1
  O  O2971  1  0.77176220  0.97524540  0.37176200  1
  O  O2972  1  0.77176220  0.97524540  0.57176200  1
  O  O2973  1  0.77176220  0.97524540  0.77176200  1
  O  O2974  1  0.77176220  0.97524540  0.97176200  1
  O  O2975  1  0.97176220  0.17524540  0.17176200  1
  O  O2976  1  0.97176220  0.17524540  0.37176200  1
  O  O2977  1  0.97176220  0.17524540  0.57176200  1
  O  O2978  1  0.97176220  0.17524540  0.77176200  1
  O  O2979  1  0.97176220  0.17524540  0.97176200  1
  O  O2980  1  0.97176220  0.37524540  0.17176200  1
  O  O2981  1  0.97176220  0.37524540  0.37176200  1
  O  O2982  1  0.97176220  0.37524540  0.57176200  1
  O  O2983  1  0.97176220  0.37524540  0.77176200  1
  O  O2984  1  0.97176220  0.37524540  0.97176200  1
  O  O2985  1  0.97176220  0.57524540  0.17176200  1
  O  O2986  1  0.97176220  0.57524540  0.37176200  1
  O  O2987  1  0.97176220  0.57524540  0.57176200  1
  O  O2988  1  0.97176220  0.57524540  0.77176200  1
  O  O2989  1  0.97176220  0.57524540  0.97176200  1
  O  O2990  1  0.97176220  0.77524540  0.17176200  1
  O  O2991  1  0.97176220  0.77524540  0.37176200  1
  O  O2992  1  0.97176220  0.77524540  0.57176200  1
  O  O2993  1  0.97176220  0.77524540  0.77176200  1
  O  O2994  1  0.97176220  0.77524540  0.97176200  1
  O  O2995  1  0.97176220  0.97524540  0.17176200  1
  O  O2996  1  0.97176220  0.97524540  0.37176200  1
  O  O2997  1  0.97176220  0.97524540  0.57176200  1
  O  O2998  1  0.97176220  0.97524540  0.77176200  1
  O  O2999  1  0.97176220  0.97524540  0.97176200  1
  O  O3000  1  0.07177980  0.07524940  0.18123420  1
  O  O3001  1  0.07177980  0.07524940  0.38123420  1
  O  O3002  1  0.07177980  0.07524940  0.58123420  1
  O  O3003  1  0.07177980  0.07524940  0.78123420  1
  O  O3004  1  0.07177980  0.07524940  0.98123420  1
  O  O3005  1  0.07177980  0.27524940  0.18123420  1
  O  O3006  1  0.07177980  0.27524940  0.38123420  1
  O  O3007  1  0.07177980  0.27524940  0.58123420  1
  O  O3008  1  0.07177980  0.27524940  0.78123420  1
  O  O3009  1  0.07177980  0.27524940  0.98123420  1
  O  O3010  1  0.07177980  0.47524940  0.18123420  1
  O  O3011  1  0.07177980  0.47524940  0.38123420  1
  O  O3012  1  0.07177980  0.47524940  0.58123420  1
  O  O3013  1  0.07177980  0.47524940  0.78123420  1
  O  O3014  1  0.07177980  0.47524940  0.98123420  1
  O  O3015  1  0.07177980  0.67524940  0.18123420  1
  O  O3016  1  0.07177980  0.67524940  0.38123420  1
  O  O3017  1  0.07177980  0.67524940  0.58123420  1
  O  O3018  1  0.07177980  0.67524940  0.78123420  1
  O  O3019  1  0.07177980  0.67524940  0.98123420  1
  O  O3020  1  0.07177980  0.87524940  0.18123420  1
  O  O3021  1  0.07177980  0.87524940  0.38123420  1
  O  O3022  1  0.07177980  0.87524940  0.58123420  1
  O  O3023  1  0.07177980  0.87524940  0.78123420  1
  O  O3024  1  0.07177980  0.87524940  0.98123420  1
  O  O3025  1  0.27177980  0.07524940  0.18123420  1
  O  O3026  1  0.27177980  0.07524940  0.38123420  1
  O  O3027  1  0.27177980  0.07524940  0.58123420  1
  O  O3028  1  0.27177980  0.07524940  0.78123420  1
  O  O3029  1  0.27177980  0.07524940  0.98123420  1
  O  O3030  1  0.27177980  0.27524940  0.18123420  1
  O  O3031  1  0.27177980  0.27524940  0.38123420  1
  O  O3032  1  0.27177980  0.27524940  0.58123420  1
  O  O3033  1  0.27177980  0.27524940  0.78123420  1
  O  O3034  1  0.27177980  0.27524940  0.98123420  1
  O  O3035  1  0.27177980  0.47524940  0.18123420  1
  O  O3036  1  0.27177980  0.47524940  0.38123420  1
  O  O3037  1  0.27177980  0.47524940  0.58123420  1
  O  O3038  1  0.27177980  0.47524940  0.78123420  1
  O  O3039  1  0.27177980  0.47524940  0.98123420  1
  O  O3040  1  0.27177980  0.67524940  0.18123420  1
  O  O3041  1  0.27177980  0.67524940  0.38123420  1
  O  O3042  1  0.27177980  0.67524940  0.58123420  1
  O  O3043  1  0.27177980  0.67524940  0.78123420  1
  O  O3044  1  0.27177980  0.67524940  0.98123420  1
  O  O3045  1  0.27177980  0.87524940  0.18123420  1
  O  O3046  1  0.27177980  0.87524940  0.38123420  1
  O  O3047  1  0.27177980  0.87524940  0.58123420  1
  O  O3048  1  0.27177980  0.87524940  0.78123420  1
  O  O3049  1  0.27177980  0.87524940  0.98123420  1
  O  O3050  1  0.47177980  0.07524940  0.18123420  1
  O  O3051  1  0.47177980  0.07524940  0.38123420  1
  O  O3052  1  0.47177980  0.07524940  0.58123420  1
  O  O3053  1  0.47177980  0.07524940  0.78123420  1
  O  O3054  1  0.47177980  0.07524940  0.98123420  1
  O  O3055  1  0.47177980  0.27524940  0.18123420  1
  O  O3056  1  0.47177980  0.27524940  0.38123420  1
  O  O3057  1  0.47177980  0.27524940  0.58123420  1
  O  O3058  1  0.47177980  0.27524940  0.78123420  1
  O  O3059  1  0.47177980  0.27524940  0.98123420  1
  O  O3060  1  0.47177980  0.47524940  0.18123420  1
  O  O3061  1  0.47177980  0.47524940  0.38123420  1
  O  O3062  1  0.47177980  0.47524940  0.58123420  1
  O  O3063  1  0.47177980  0.47524940  0.78123420  1
  O  O3064  1  0.47177980  0.47524940  0.98123420  1
  O  O3065  1  0.47177980  0.67524940  0.18123420  1
  O  O3066  1  0.47177980  0.67524940  0.38123420  1
  O  O3067  1  0.47177980  0.67524940  0.58123420  1
  O  O3068  1  0.47177980  0.67524940  0.78123420  1
  O  O3069  1  0.47177980  0.67524940  0.98123420  1
  O  O3070  1  0.47177980  0.87524940  0.18123420  1
  O  O3071  1  0.47177980  0.87524940  0.38123420  1
  O  O3072  1  0.47177980  0.87524940  0.58123420  1
  O  O3073  1  0.47177980  0.87524940  0.78123420  1
  O  O3074  1  0.47177980  0.87524940  0.98123420  1
  O  O3075  1  0.67177980  0.07524940  0.18123420  1
  O  O3076  1  0.67177980  0.07524940  0.38123420  1
  O  O3077  1  0.67177980  0.07524940  0.58123420  1
  O  O3078  1  0.67177980  0.07524940  0.78123420  1
  O  O3079  1  0.67177980  0.07524940  0.98123420  1
  O  O3080  1  0.67177980  0.27524940  0.18123420  1
  O  O3081  1  0.67177980  0.27524940  0.38123420  1
  O  O3082  1  0.67177980  0.27524940  0.58123420  1
  O  O3083  1  0.67177980  0.27524940  0.78123420  1
  O  O3084  1  0.67177980  0.27524940  0.98123420  1
  O  O3085  1  0.67177980  0.47524940  0.18123420  1
  O  O3086  1  0.67177980  0.47524940  0.38123420  1
  O  O3087  1  0.67177980  0.47524940  0.58123420  1
  O  O3088  1  0.67177980  0.47524940  0.78123420  1
  O  O3089  1  0.67177980  0.47524940  0.98123420  1
  O  O3090  1  0.67177980  0.67524940  0.18123420  1
  O  O3091  1  0.67177980  0.67524940  0.38123420  1
  O  O3092  1  0.67177980  0.67524940  0.58123420  1
  O  O3093  1  0.67177980  0.67524940  0.78123420  1
  O  O3094  1  0.67177980  0.67524940  0.98123420  1
  O  O3095  1  0.67177980  0.87524940  0.18123420  1
  O  O3096  1  0.67177980  0.87524940  0.38123420  1
  O  O3097  1  0.67177980  0.87524940  0.58123420  1
  O  O3098  1  0.67177980  0.87524940  0.78123420  1
  O  O3099  1  0.67177980  0.87524940  0.98123420  1
  O  O3100  1  0.87177980  0.07524940  0.18123420  1
  O  O3101  1  0.87177980  0.07524940  0.38123420  1
  O  O3102  1  0.87177980  0.07524940  0.58123420  1
  O  O3103  1  0.87177980  0.07524940  0.78123420  1
  O  O3104  1  0.87177980  0.07524940  0.98123420  1
  O  O3105  1  0.87177980  0.27524940  0.18123420  1
  O  O3106  1  0.87177980  0.27524940  0.38123420  1
  O  O3107  1  0.87177980  0.27524940  0.58123420  1
  O  O3108  1  0.87177980  0.27524940  0.78123420  1
  O  O3109  1  0.87177980  0.27524940  0.98123420  1
  O  O3110  1  0.87177980  0.47524940  0.18123420  1
  O  O3111  1  0.87177980  0.47524940  0.38123420  1
  O  O3112  1  0.87177980  0.47524940  0.58123420  1
  O  O3113  1  0.87177980  0.47524940  0.78123420  1
  O  O3114  1  0.87177980  0.47524940  0.98123420  1
  O  O3115  1  0.87177980  0.67524940  0.18123420  1
  O  O3116  1  0.87177980  0.67524940  0.38123420  1
  O  O3117  1  0.87177980  0.67524940  0.58123420  1
  O  O3118  1  0.87177980  0.67524940  0.78123420  1
  O  O3119  1  0.87177980  0.67524940  0.98123420  1
  O  O3120  1  0.87177980  0.87524940  0.18123420  1
  O  O3121  1  0.87177980  0.87524940  0.38123420  1
  O  O3122  1  0.87177980  0.87524940  0.58123420  1
  O  O3123  1  0.87177980  0.87524940  0.78123420  1
  O  O3124  1  0.87177980  0.87524940  0.98123420  1
  O  O3125  1  0.17176700  0.17524780  0.08122680  1
  O  O3126  1  0.17176700  0.17524780  0.28122680  1
  O  O3127  1  0.17176700  0.17524780  0.48122680  1
  O  O3128  1  0.17176700  0.17524780  0.68122680  1
  O  O3129  1  0.17176700  0.17524780  0.88122680  1
  O  O3130  1  0.17176700  0.37524780  0.08122680  1
  O  O3131  1  0.17176700  0.37524780  0.28122680  1
  O  O3132  1  0.17176700  0.37524780  0.48122680  1
  O  O3133  1  0.17176700  0.37524780  0.68122680  1
  O  O3134  1  0.17176700  0.37524780  0.88122680  1
  O  O3135  1  0.17176700  0.57524780  0.08122680  1
  O  O3136  1  0.17176700  0.57524780  0.28122680  1
  O  O3137  1  0.17176700  0.57524780  0.48122680  1
  O  O3138  1  0.17176700  0.57524780  0.68122680  1
  O  O3139  1  0.17176700  0.57524780  0.88122680  1
  O  O3140  1  0.17176700  0.77524780  0.08122680  1
  O  O3141  1  0.17176700  0.77524780  0.28122680  1
  O  O3142  1  0.17176700  0.77524780  0.48122680  1
  O  O3143  1  0.17176700  0.77524780  0.68122680  1
  O  O3144  1  0.17176700  0.77524780  0.88122680  1
  O  O3145  1  0.17176700  0.97524780  0.08122680  1
  O  O3146  1  0.17176700  0.97524780  0.28122680  1
  O  O3147  1  0.17176700  0.97524780  0.48122680  1
  O  O3148  1  0.17176700  0.97524780  0.68122680  1
  O  O3149  1  0.17176700  0.97524780  0.88122680  1
  O  O3150  1  0.37176700  0.17524780  0.08122680  1
  O  O3151  1  0.37176700  0.17524780  0.28122680  1
  O  O3152  1  0.37176700  0.17524780  0.48122680  1
  O  O3153  1  0.37176700  0.17524780  0.68122680  1
  O  O3154  1  0.37176700  0.17524780  0.88122680  1
  O  O3155  1  0.37176700  0.37524780  0.08122680  1
  O  O3156  1  0.37176700  0.37524780  0.28122680  1
  O  O3157  1  0.37176700  0.37524780  0.48122680  1
  O  O3158  1  0.37176700  0.37524780  0.68122680  1
  O  O3159  1  0.37176700  0.37524780  0.88122680  1
  O  O3160  1  0.37176700  0.57524780  0.08122680  1
  O  O3161  1  0.37176700  0.57524780  0.28122680  1
  O  O3162  1  0.37176700  0.57524780  0.48122680  1
  O  O3163  1  0.37176700  0.57524780  0.68122680  1
  O  O3164  1  0.37176700  0.57524780  0.88122680  1
  O  O3165  1  0.37176700  0.77524780  0.08122680  1
  O  O3166  1  0.37176700  0.77524780  0.28122680  1
  O  O3167  1  0.37176700  0.77524780  0.48122680  1
  O  O3168  1  0.37176700  0.77524780  0.68122680  1
  O  O3169  1  0.37176700  0.77524780  0.88122680  1
  O  O3170  1  0.37176700  0.97524780  0.08122680  1
  O  O3171  1  0.37176700  0.97524780  0.28122680  1
  O  O3172  1  0.37176700  0.97524780  0.48122680  1
  O  O3173  1  0.37176700  0.97524780  0.68122680  1
  O  O3174  1  0.37176700  0.97524780  0.88122680  1
  O  O3175  1  0.57176700  0.17524780  0.08122680  1
  O  O3176  1  0.57176700  0.17524780  0.28122680  1
  O  O3177  1  0.57176700  0.17524780  0.48122680  1
  O  O3178  1  0.57176700  0.17524780  0.68122680  1
  O  O3179  1  0.57176700  0.17524780  0.88122680  1
  O  O3180  1  0.57176700  0.37524780  0.08122680  1
  O  O3181  1  0.57176700  0.37524780  0.28122680  1
  O  O3182  1  0.57176700  0.37524780  0.48122680  1
  O  O3183  1  0.57176700  0.37524780  0.68122680  1
  O  O3184  1  0.57176700  0.37524780  0.88122680  1
  O  O3185  1  0.57176700  0.57524780  0.08122680  1
  O  O3186  1  0.57176700  0.57524780  0.28122680  1
  O  O3187  1  0.57176700  0.57524780  0.48122680  1
  O  O3188  1  0.57176700  0.57524780  0.68122680  1
  O  O3189  1  0.57176700  0.57524780  0.88122680  1
  O  O3190  1  0.57176700  0.77524780  0.08122680  1
  O  O3191  1  0.57176700  0.77524780  0.28122680  1
  O  O3192  1  0.57176700  0.77524780  0.48122680  1
  O  O3193  1  0.57176700  0.77524780  0.68122680  1
  O  O3194  1  0.57176700  0.77524780  0.88122680  1
  O  O3195  1  0.57176700  0.97524780  0.08122680  1
  O  O3196  1  0.57176700  0.97524780  0.28122680  1
  O  O3197  1  0.57176700  0.97524780  0.48122680  1
  O  O3198  1  0.57176700  0.97524780  0.68122680  1
  O  O3199  1  0.57176700  0.97524780  0.88122680  1
  O  O3200  1  0.77176700  0.17524780  0.08122680  1
  O  O3201  1  0.77176700  0.17524780  0.28122680  1
  O  O3202  1  0.77176700  0.17524780  0.48122680  1
  O  O3203  1  0.77176700  0.17524780  0.68122680  1
  O  O3204  1  0.77176700  0.17524780  0.88122680  1
  O  O3205  1  0.77176700  0.37524780  0.08122680  1
  O  O3206  1  0.77176700  0.37524780  0.28122680  1
  O  O3207  1  0.77176700  0.37524780  0.48122680  1
  O  O3208  1  0.77176700  0.37524780  0.68122680  1
  O  O3209  1  0.77176700  0.37524780  0.88122680  1
  O  O3210  1  0.77176700  0.57524780  0.08122680  1
  O  O3211  1  0.77176700  0.57524780  0.28122680  1
  O  O3212  1  0.77176700  0.57524780  0.48122680  1
  O  O3213  1  0.77176700  0.57524780  0.68122680  1
  O  O3214  1  0.77176700  0.57524780  0.88122680  1
  O  O3215  1  0.77176700  0.77524780  0.08122680  1
  O  O3216  1  0.77176700  0.77524780  0.28122680  1
  O  O3217  1  0.77176700  0.77524780  0.48122680  1
  O  O3218  1  0.77176700  0.77524780  0.68122680  1
  O  O3219  1  0.77176700  0.77524780  0.88122680  1
  O  O3220  1  0.77176700  0.97524780  0.08122680  1
  O  O3221  1  0.77176700  0.97524780  0.28122680  1
  O  O3222  1  0.77176700  0.97524780  0.48122680  1
  O  O3223  1  0.77176700  0.97524780  0.68122680  1
  O  O3224  1  0.77176700  0.97524780  0.88122680  1
  O  O3225  1  0.97176700  0.17524780  0.08122680  1
  O  O3226  1  0.97176700  0.17524780  0.28122680  1
  O  O3227  1  0.97176700  0.17524780  0.48122680  1
  O  O3228  1  0.97176700  0.17524780  0.68122680  1
  O  O3229  1  0.97176700  0.17524780  0.88122680  1
  O  O3230  1  0.97176700  0.37524780  0.08122680  1
  O  O3231  1  0.97176700  0.37524780  0.28122680  1
  O  O3232  1  0.97176700  0.37524780  0.48122680  1
  O  O3233  1  0.97176700  0.37524780  0.68122680  1
  O  O3234  1  0.97176700  0.37524780  0.88122680  1
  O  O3235  1  0.97176700  0.57524780  0.08122680  1
  O  O3236  1  0.97176700  0.57524780  0.28122680  1
  O  O3237  1  0.97176700  0.57524780  0.48122680  1
  O  O3238  1  0.97176700  0.57524780  0.68122680  1
  O  O3239  1  0.97176700  0.57524780  0.88122680  1
  O  O3240  1  0.97176700  0.77524780  0.08122680  1
  O  O3241  1  0.97176700  0.77524780  0.28122680  1
  O  O3242  1  0.97176700  0.77524780  0.48122680  1
  O  O3243  1  0.97176700  0.77524780  0.68122680  1
  O  O3244  1  0.97176700  0.77524780  0.88122680  1
  O  O3245  1  0.97176700  0.97524780  0.08122680  1
  O  O3246  1  0.97176700  0.97524780  0.28122680  1
  O  O3247  1  0.97176700  0.97524780  0.48122680  1
  O  O3248  1  0.97176700  0.97524780  0.68122680  1
  O  O3249  1  0.97176700  0.97524780  0.88122680  1
  O  O3250  1  0.18123420  0.07524940  0.07177660  1
  O  O3251  1  0.18123420  0.07524940  0.27177660  1
  O  O3252  1  0.18123420  0.07524940  0.47177660  1
  O  O3253  1  0.18123420  0.07524940  0.67177660  1
  O  O3254  1  0.18123420  0.07524940  0.87177660  1
  O  O3255  1  0.18123420  0.27524940  0.07177660  1
  O  O3256  1  0.18123420  0.27524940  0.27177660  1
  O  O3257  1  0.18123420  0.27524940  0.47177660  1
  O  O3258  1  0.18123420  0.27524940  0.67177660  1
  O  O3259  1  0.18123420  0.27524940  0.87177660  1
  O  O3260  1  0.18123420  0.47524940  0.07177660  1
  O  O3261  1  0.18123420  0.47524940  0.27177660  1
  O  O3262  1  0.18123420  0.47524940  0.47177660  1
  O  O3263  1  0.18123420  0.47524940  0.67177660  1
  O  O3264  1  0.18123420  0.47524940  0.87177660  1
  O  O3265  1  0.18123420  0.67524940  0.07177660  1
  O  O3266  1  0.18123420  0.67524940  0.27177660  1
  O  O3267  1  0.18123420  0.67524940  0.47177660  1
  O  O3268  1  0.18123420  0.67524940  0.67177660  1
  O  O3269  1  0.18123420  0.67524940  0.87177660  1
  O  O3270  1  0.18123420  0.87524940  0.07177660  1
  O  O3271  1  0.18123420  0.87524940  0.27177660  1
  O  O3272  1  0.18123420  0.87524940  0.47177660  1
  O  O3273  1  0.18123420  0.87524940  0.67177660  1
  O  O3274  1  0.18123420  0.87524940  0.87177660  1
  O  O3275  1  0.38123420  0.07524940  0.07177660  1
  O  O3276  1  0.38123420  0.07524940  0.27177660  1
  O  O3277  1  0.38123420  0.07524940  0.47177660  1
  O  O3278  1  0.38123420  0.07524940  0.67177660  1
  O  O3279  1  0.38123420  0.07524940  0.87177660  1
  O  O3280  1  0.38123420  0.27524940  0.07177660  1
  O  O3281  1  0.38123420  0.27524940  0.27177660  1
  O  O3282  1  0.38123420  0.27524940  0.47177660  1
  O  O3283  1  0.38123420  0.27524940  0.67177660  1
  O  O3284  1  0.38123420  0.27524940  0.87177660  1
  O  O3285  1  0.38123420  0.47524940  0.07177660  1
  O  O3286  1  0.38123420  0.47524940  0.27177660  1
  O  O3287  1  0.38123420  0.47524940  0.47177660  1
  O  O3288  1  0.38123420  0.47524940  0.67177660  1
  O  O3289  1  0.38123420  0.47524940  0.87177660  1
  O  O3290  1  0.38123420  0.67524940  0.07177660  1
  O  O3291  1  0.38123420  0.67524940  0.27177660  1
  O  O3292  1  0.38123420  0.67524940  0.47177660  1
  O  O3293  1  0.38123420  0.67524940  0.67177660  1
  O  O3294  1  0.38123420  0.67524940  0.87177660  1
  O  O3295  1  0.38123420  0.87524940  0.07177660  1
  O  O3296  1  0.38123420  0.87524940  0.27177660  1
  O  O3297  1  0.38123420  0.87524940  0.47177660  1
  O  O3298  1  0.38123420  0.87524940  0.67177660  1
  O  O3299  1  0.38123420  0.87524940  0.87177660  1
  O  O3300  1  0.58123420  0.07524940  0.07177660  1
  O  O3301  1  0.58123420  0.07524940  0.27177660  1
  O  O3302  1  0.58123420  0.07524940  0.47177660  1
  O  O3303  1  0.58123420  0.07524940  0.67177660  1
  O  O3304  1  0.58123420  0.07524940  0.87177660  1
  O  O3305  1  0.58123420  0.27524940  0.07177660  1
  O  O3306  1  0.58123420  0.27524940  0.27177660  1
  O  O3307  1  0.58123420  0.27524940  0.47177660  1
  O  O3308  1  0.58123420  0.27524940  0.67177660  1
  O  O3309  1  0.58123420  0.27524940  0.87177660  1
  O  O3310  1  0.58123420  0.47524940  0.07177660  1
  O  O3311  1  0.58123420  0.47524940  0.27177660  1
  O  O3312  1  0.58123420  0.47524940  0.47177660  1
  O  O3313  1  0.58123420  0.47524940  0.67177660  1
  O  O3314  1  0.58123420  0.47524940  0.87177660  1
  O  O3315  1  0.58123420  0.67524940  0.07177660  1
  O  O3316  1  0.58123420  0.67524940  0.27177660  1
  O  O3317  1  0.58123420  0.67524940  0.47177660  1
  O  O3318  1  0.58123420  0.67524940  0.67177660  1
  O  O3319  1  0.58123420  0.67524940  0.87177660  1
  O  O3320  1  0.58123420  0.87524940  0.07177660  1
  O  O3321  1  0.58123420  0.87524940  0.27177660  1
  O  O3322  1  0.58123420  0.87524940  0.47177660  1
  O  O3323  1  0.58123420  0.87524940  0.67177660  1
  O  O3324  1  0.58123420  0.87524940  0.87177660  1
  O  O3325  1  0.78123420  0.07524940  0.07177660  1
  O  O3326  1  0.78123420  0.07524940  0.27177660  1
  O  O3327  1  0.78123420  0.07524940  0.47177660  1
  O  O3328  1  0.78123420  0.07524940  0.67177660  1
  O  O3329  1  0.78123420  0.07524940  0.87177660  1
  O  O3330  1  0.78123420  0.27524940  0.07177660  1
  O  O3331  1  0.78123420  0.27524940  0.27177660  1
  O  O3332  1  0.78123420  0.27524940  0.47177660  1
  O  O3333  1  0.78123420  0.27524940  0.67177660  1
  O  O3334  1  0.78123420  0.27524940  0.87177660  1
  O  O3335  1  0.78123420  0.47524940  0.07177660  1
  O  O3336  1  0.78123420  0.47524940  0.27177660  1
  O  O3337  1  0.78123420  0.47524940  0.47177660  1
  O  O3338  1  0.78123420  0.47524940  0.67177660  1
  O  O3339  1  0.78123420  0.47524940  0.87177660  1
  O  O3340  1  0.78123420  0.67524940  0.07177660  1
  O  O3341  1  0.78123420  0.67524940  0.27177660  1
  O  O3342  1  0.78123420  0.67524940  0.47177660  1
  O  O3343  1  0.78123420  0.67524940  0.67177660  1
  O  O3344  1  0.78123420  0.67524940  0.87177660  1
  O  O3345  1  0.78123420  0.87524940  0.07177660  1
  O  O3346  1  0.78123420  0.87524940  0.27177660  1
  O  O3347  1  0.78123420  0.87524940  0.47177660  1
  O  O3348  1  0.78123420  0.87524940  0.67177660  1
  O  O3349  1  0.78123420  0.87524940  0.87177660  1
  O  O3350  1  0.98123420  0.07524940  0.07177660  1
  O  O3351  1  0.98123420  0.07524940  0.27177660  1
  O  O3352  1  0.98123420  0.07524940  0.47177660  1
  O  O3353  1  0.98123420  0.07524940  0.67177660  1
  O  O3354  1  0.98123420  0.07524940  0.87177660  1
  O  O3355  1  0.98123420  0.27524940  0.07177660  1
  O  O3356  1  0.98123420  0.27524940  0.27177660  1
  O  O3357  1  0.98123420  0.27524940  0.47177660  1
  O  O3358  1  0.98123420  0.27524940  0.67177660  1
  O  O3359  1  0.98123420  0.27524940  0.87177660  1
  O  O3360  1  0.98123420  0.47524940  0.07177660  1
  O  O3361  1  0.98123420  0.47524940  0.27177660  1
  O  O3362  1  0.98123420  0.47524940  0.47177660  1
  O  O3363  1  0.98123420  0.47524940  0.67177660  1
  O  O3364  1  0.98123420  0.47524940  0.87177660  1
  O  O3365  1  0.98123420  0.67524940  0.07177660  1
  O  O3366  1  0.98123420  0.67524940  0.27177660  1
  O  O3367  1  0.98123420  0.67524940  0.47177660  1
  O  O3368  1  0.98123420  0.67524940  0.67177660  1
  O  O3369  1  0.98123420  0.67524940  0.87177660  1
  O  O3370  1  0.98123420  0.87524940  0.07177660  1
  O  O3371  1  0.98123420  0.87524940  0.27177660  1
  O  O3372  1  0.98123420  0.87524940  0.47177660  1
  O  O3373  1  0.98123420  0.87524940  0.67177660  1
  O  O3374  1  0.98123420  0.87524940  0.87177660  1
  O  O3375  1  0.08122700  0.17524880  0.17176420  1
  O  O3376  1  0.08122700  0.17524880  0.37176420  1
  O  O3377  1  0.08122700  0.17524880  0.57176420  1
  O  O3378  1  0.08122700  0.17524880  0.77176420  1
  O  O3379  1  0.08122700  0.17524880  0.97176420  1
  O  O3380  1  0.08122700  0.37524880  0.17176420  1
  O  O3381  1  0.08122700  0.37524880  0.37176420  1
  O  O3382  1  0.08122700  0.37524880  0.57176420  1
  O  O3383  1  0.08122700  0.37524880  0.77176420  1
  O  O3384  1  0.08122700  0.37524880  0.97176420  1
  O  O3385  1  0.08122700  0.57524880  0.17176420  1
  O  O3386  1  0.08122700  0.57524880  0.37176420  1
  O  O3387  1  0.08122700  0.57524880  0.57176420  1
  O  O3388  1  0.08122700  0.57524880  0.77176420  1
  O  O3389  1  0.08122700  0.57524880  0.97176420  1
  O  O3390  1  0.08122700  0.77524880  0.17176420  1
  O  O3391  1  0.08122700  0.77524880  0.37176420  1
  O  O3392  1  0.08122700  0.77524880  0.57176420  1
  O  O3393  1  0.08122700  0.77524880  0.77176420  1
  O  O3394  1  0.08122700  0.77524880  0.97176420  1
  O  O3395  1  0.08122700  0.97524880  0.17176420  1
  O  O3396  1  0.08122700  0.97524880  0.37176420  1
  O  O3397  1  0.08122700  0.97524880  0.57176420  1
  O  O3398  1  0.08122700  0.97524880  0.77176420  1
  O  O3399  1  0.08122700  0.97524880  0.97176420  1
  O  O3400  1  0.28122700  0.17524880  0.17176420  1
  O  O3401  1  0.28122700  0.17524880  0.37176420  1
  O  O3402  1  0.28122700  0.17524880  0.57176420  1
  O  O3403  1  0.28122700  0.17524880  0.77176420  1
  O  O3404  1  0.28122700  0.17524880  0.97176420  1
  O  O3405  1  0.28122700  0.37524880  0.17176420  1
  O  O3406  1  0.28122700  0.37524880  0.37176420  1
  O  O3407  1  0.28122700  0.37524880  0.57176420  1
  O  O3408  1  0.28122700  0.37524880  0.77176420  1
  O  O3409  1  0.28122700  0.37524880  0.97176420  1
  O  O3410  1  0.28122700  0.57524880  0.17176420  1
  O  O3411  1  0.28122700  0.57524880  0.37176420  1
  O  O3412  1  0.28122700  0.57524880  0.57176420  1
  O  O3413  1  0.28122700  0.57524880  0.77176420  1
  O  O3414  1  0.28122700  0.57524880  0.97176420  1
  O  O3415  1  0.28122700  0.77524880  0.17176420  1
  O  O3416  1  0.28122700  0.77524880  0.37176420  1
  O  O3417  1  0.28122700  0.77524880  0.57176420  1
  O  O3418  1  0.28122700  0.77524880  0.77176420  1
  O  O3419  1  0.28122700  0.77524880  0.97176420  1
  O  O3420  1  0.28122700  0.97524880  0.17176420  1
  O  O3421  1  0.28122700  0.97524880  0.37176420  1
  O  O3422  1  0.28122700  0.97524880  0.57176420  1
  O  O3423  1  0.28122700  0.97524880  0.77176420  1
  O  O3424  1  0.28122700  0.97524880  0.97176420  1
  O  O3425  1  0.48122700  0.17524880  0.17176420  1
  O  O3426  1  0.48122700  0.17524880  0.37176420  1
  O  O3427  1  0.48122700  0.17524880  0.57176420  1
  O  O3428  1  0.48122700  0.17524880  0.77176420  1
  O  O3429  1  0.48122700  0.17524880  0.97176420  1
  O  O3430  1  0.48122700  0.37524880  0.17176420  1
  O  O3431  1  0.48122700  0.37524880  0.37176420  1
  O  O3432  1  0.48122700  0.37524880  0.57176420  1
  O  O3433  1  0.48122700  0.37524880  0.77176420  1
  O  O3434  1  0.48122700  0.37524880  0.97176420  1
  O  O3435  1  0.48122700  0.57524880  0.17176420  1
  O  O3436  1  0.48122700  0.57524880  0.37176420  1
  O  O3437  1  0.48122700  0.57524880  0.57176420  1
  O  O3438  1  0.48122700  0.57524880  0.77176420  1
  O  O3439  1  0.48122700  0.57524880  0.97176420  1
  O  O3440  1  0.48122700  0.77524880  0.17176420  1
  O  O3441  1  0.48122700  0.77524880  0.37176420  1
  O  O3442  1  0.48122700  0.77524880  0.57176420  1
  O  O3443  1  0.48122700  0.77524880  0.77176420  1
  O  O3444  1  0.48122700  0.77524880  0.97176420  1
  O  O3445  1  0.48122700  0.97524880  0.17176420  1
  O  O3446  1  0.48122700  0.97524880  0.37176420  1
  O  O3447  1  0.48122700  0.97524880  0.57176420  1
  O  O3448  1  0.48122700  0.97524880  0.77176420  1
  O  O3449  1  0.48122700  0.97524880  0.97176420  1
  O  O3450  1  0.68122700  0.17524880  0.17176420  1
  O  O3451  1  0.68122700  0.17524880  0.37176420  1
  O  O3452  1  0.68122700  0.17524880  0.57176420  1
  O  O3453  1  0.68122700  0.17524880  0.77176420  1
  O  O3454  1  0.68122700  0.17524880  0.97176420  1
  O  O3455  1  0.68122700  0.37524880  0.17176420  1
  O  O3456  1  0.68122700  0.37524880  0.37176420  1
  O  O3457  1  0.68122700  0.37524880  0.57176420  1
  O  O3458  1  0.68122700  0.37524880  0.77176420  1
  O  O3459  1  0.68122700  0.37524880  0.97176420  1
  O  O3460  1  0.68122700  0.57524880  0.17176420  1
  O  O3461  1  0.68122700  0.57524880  0.37176420  1
  O  O3462  1  0.68122700  0.57524880  0.57176420  1
  O  O3463  1  0.68122700  0.57524880  0.77176420  1
  O  O3464  1  0.68122700  0.57524880  0.97176420  1
  O  O3465  1  0.68122700  0.77524880  0.17176420  1
  O  O3466  1  0.68122700  0.77524880  0.37176420  1
  O  O3467  1  0.68122700  0.77524880  0.57176420  1
  O  O3468  1  0.68122700  0.77524880  0.77176420  1
  O  O3469  1  0.68122700  0.77524880  0.97176420  1
  O  O3470  1  0.68122700  0.97524880  0.17176420  1
  O  O3471  1  0.68122700  0.97524880  0.37176420  1
  O  O3472  1  0.68122700  0.97524880  0.57176420  1
  O  O3473  1  0.68122700  0.97524880  0.77176420  1
  O  O3474  1  0.68122700  0.97524880  0.97176420  1
  O  O3475  1  0.88122700  0.17524880  0.17176420  1
  O  O3476  1  0.88122700  0.17524880  0.37176420  1
  O  O3477  1  0.88122700  0.17524880  0.57176420  1
  O  O3478  1  0.88122700  0.17524880  0.77176420  1
  O  O3479  1  0.88122700  0.17524880  0.97176420  1
  O  O3480  1  0.88122700  0.37524880  0.17176420  1
  O  O3481  1  0.88122700  0.37524880  0.37176420  1
  O  O3482  1  0.88122700  0.37524880  0.57176420  1
  O  O3483  1  0.88122700  0.37524880  0.77176420  1
  O  O3484  1  0.88122700  0.37524880  0.97176420  1
  O  O3485  1  0.88122700  0.57524880  0.17176420  1
  O  O3486  1  0.88122700  0.57524880  0.37176420  1
  O  O3487  1  0.88122700  0.57524880  0.57176420  1
  O  O3488  1  0.88122700  0.57524880  0.77176420  1
  O  O3489  1  0.88122700  0.57524880  0.97176420  1
  O  O3490  1  0.88122700  0.77524880  0.17176420  1
  O  O3491  1  0.88122700  0.77524880  0.37176420  1
  O  O3492  1  0.88122700  0.77524880  0.57176420  1
  O  O3493  1  0.88122700  0.77524880  0.77176420  1
  O  O3494  1  0.88122700  0.77524880  0.97176420  1
  O  O3495  1  0.88122700  0.97524880  0.17176420  1
  O  O3496  1  0.88122700  0.97524880  0.37176420  1
  O  O3497  1  0.88122700  0.97524880  0.57176420  1
  O  O3498  1  0.88122700  0.97524880  0.77176420  1
  O  O3499  1  0.88122700  0.97524880  0.97176420  1
