# generated using pymatgen
data_Cs2Li2GeO4
_symmetry_space_group_name_H-M   'P 1'
_cell_length_a   34.46727600
_cell_length_b   35.38487858
_cell_length_c   57.98131385
_cell_angle_alpha   84.47913904
_cell_angle_beta   76.58705382
_cell_angle_gamma   86.53908413
_symmetry_Int_Tables_number   1
_chemical_formula_structural   Cs2Li2GeO4
_chemical_formula_sum   'Cs864 Li864 Ge432 O1728'
_cell_volume   68414.35128488
_cell_formula_units_Z   432
loop_
 _symmetry_equiv_pos_site_id
 _symmetry_equiv_pos_as_xyz
  1  'x, y, z'
loop_
 _atom_site_type_symbol
 _atom_site_label
 _atom_site_symmetry_multiplicity
 _atom_site_fract_x
 _atom_site_fract_y
 _atom_site_fract_z
 _atom_site_occupancy
  Cs  Cs0  1  0.03572050  0.04438350  0.16462767  1
  Cs  Cs1  1  0.03572050  0.04438350  0.33129433  1
  Cs  Cs2  1  0.03572050  0.04438350  0.49796100  1
  Cs  Cs3  1  0.03572050  0.04438350  0.66462767  1
  Cs  Cs4  1  0.03572050  0.04438350  0.83129433  1
  Cs  Cs5  1  0.03572050  0.04438350  0.99796100  1
  Cs  Cs6  1  0.03572050  0.21105017  0.16462767  1
  Cs  Cs7  1  0.03572050  0.21105017  0.33129433  1
  Cs  Cs8  1  0.03572050  0.21105017  0.49796100  1
  Cs  Cs9  1  0.03572050  0.21105017  0.66462767  1
  Cs  Cs10  1  0.03572050  0.21105017  0.83129433  1
  Cs  Cs11  1  0.03572050  0.21105017  0.99796100  1
  Cs  Cs12  1  0.03572050  0.37771683  0.16462767  1
  Cs  Cs13  1  0.03572050  0.37771683  0.33129433  1
  Cs  Cs14  1  0.03572050  0.37771683  0.49796100  1
  Cs  Cs15  1  0.03572050  0.37771683  0.66462767  1
  Cs  Cs16  1  0.03572050  0.37771683  0.83129433  1
  Cs  Cs17  1  0.03572050  0.37771683  0.99796100  1
  Cs  Cs18  1  0.03572050  0.54438350  0.16462767  1
  Cs  Cs19  1  0.03572050  0.54438350  0.33129433  1
  Cs  Cs20  1  0.03572050  0.54438350  0.49796100  1
  Cs  Cs21  1  0.03572050  0.54438350  0.66462767  1
  Cs  Cs22  1  0.03572050  0.54438350  0.83129433  1
  Cs  Cs23  1  0.03572050  0.54438350  0.99796100  1
  Cs  Cs24  1  0.03572050  0.71105017  0.16462767  1
  Cs  Cs25  1  0.03572050  0.71105017  0.33129433  1
  Cs  Cs26  1  0.03572050  0.71105017  0.49796100  1
  Cs  Cs27  1  0.03572050  0.71105017  0.66462767  1
  Cs  Cs28  1  0.03572050  0.71105017  0.83129433  1
  Cs  Cs29  1  0.03572050  0.71105017  0.99796100  1
  Cs  Cs30  1  0.03572050  0.87771683  0.16462767  1
  Cs  Cs31  1  0.03572050  0.87771683  0.33129433  1
  Cs  Cs32  1  0.03572050  0.87771683  0.49796100  1
  Cs  Cs33  1  0.03572050  0.87771683  0.66462767  1
  Cs  Cs34  1  0.03572050  0.87771683  0.83129433  1
  Cs  Cs35  1  0.03572050  0.87771683  0.99796100  1
  Cs  Cs36  1  0.20238717  0.04438350  0.16462767  1
  Cs  Cs37  1  0.20238717  0.04438350  0.33129433  1
  Cs  Cs38  1  0.20238717  0.04438350  0.49796100  1
  Cs  Cs39  1  0.20238717  0.04438350  0.66462767  1
  Cs  Cs40  1  0.20238717  0.04438350  0.83129433  1
  Cs  Cs41  1  0.20238717  0.04438350  0.99796100  1
  Cs  Cs42  1  0.20238717  0.21105017  0.16462767  1
  Cs  Cs43  1  0.20238717  0.21105017  0.33129433  1
  Cs  Cs44  1  0.20238717  0.21105017  0.49796100  1
  Cs  Cs45  1  0.20238717  0.21105017  0.66462767  1
  Cs  Cs46  1  0.20238717  0.21105017  0.83129433  1
  Cs  Cs47  1  0.20238717  0.21105017  0.99796100  1
  Cs  Cs48  1  0.20238717  0.37771683  0.16462767  1
  Cs  Cs49  1  0.20238717  0.37771683  0.33129433  1
  Cs  Cs50  1  0.20238717  0.37771683  0.49796100  1
  Cs  Cs51  1  0.20238717  0.37771683  0.66462767  1
  Cs  Cs52  1  0.20238717  0.37771683  0.83129433  1
  Cs  Cs53  1  0.20238717  0.37771683  0.99796100  1
  Cs  Cs54  1  0.20238717  0.54438350  0.16462767  1
  Cs  Cs55  1  0.20238717  0.54438350  0.33129433  1
  Cs  Cs56  1  0.20238717  0.54438350  0.49796100  1
  Cs  Cs57  1  0.20238717  0.54438350  0.66462767  1
  Cs  Cs58  1  0.20238717  0.54438350  0.83129433  1
  Cs  Cs59  1  0.20238717  0.54438350  0.99796100  1
  Cs  Cs60  1  0.20238717  0.71105017  0.16462767  1
  Cs  Cs61  1  0.20238717  0.71105017  0.33129433  1
  Cs  Cs62  1  0.20238717  0.71105017  0.49796100  1
  Cs  Cs63  1  0.20238717  0.71105017  0.66462767  1
  Cs  Cs64  1  0.20238717  0.71105017  0.83129433  1
  Cs  Cs65  1  0.20238717  0.71105017  0.99796100  1
  Cs  Cs66  1  0.20238717  0.87771683  0.16462767  1
  Cs  Cs67  1  0.20238717  0.87771683  0.33129433  1
  Cs  Cs68  1  0.20238717  0.87771683  0.49796100  1
  Cs  Cs69  1  0.20238717  0.87771683  0.66462767  1
  Cs  Cs70  1  0.20238717  0.87771683  0.83129433  1
  Cs  Cs71  1  0.20238717  0.87771683  0.99796100  1
  Cs  Cs72  1  0.36905383  0.04438350  0.16462767  1
  Cs  Cs73  1  0.36905383  0.04438350  0.33129433  1
  Cs  Cs74  1  0.36905383  0.04438350  0.49796100  1
  Cs  Cs75  1  0.36905383  0.04438350  0.66462767  1
  Cs  Cs76  1  0.36905383  0.04438350  0.83129433  1
  Cs  Cs77  1  0.36905383  0.04438350  0.99796100  1
  Cs  Cs78  1  0.36905383  0.21105017  0.16462767  1
  Cs  Cs79  1  0.36905383  0.21105017  0.33129433  1
  Cs  Cs80  1  0.36905383  0.21105017  0.49796100  1
  Cs  Cs81  1  0.36905383  0.21105017  0.66462767  1
  Cs  Cs82  1  0.36905383  0.21105017  0.83129433  1
  Cs  Cs83  1  0.36905383  0.21105017  0.99796100  1
  Cs  Cs84  1  0.36905383  0.37771683  0.16462767  1
  Cs  Cs85  1  0.36905383  0.37771683  0.33129433  1
  Cs  Cs86  1  0.36905383  0.37771683  0.49796100  1
  Cs  Cs87  1  0.36905383  0.37771683  0.66462767  1
  Cs  Cs88  1  0.36905383  0.37771683  0.83129433  1
  Cs  Cs89  1  0.36905383  0.37771683  0.99796100  1
  Cs  Cs90  1  0.36905383  0.54438350  0.16462767  1
  Cs  Cs91  1  0.36905383  0.54438350  0.33129433  1
  Cs  Cs92  1  0.36905383  0.54438350  0.49796100  1
  Cs  Cs93  1  0.36905383  0.54438350  0.66462767  1
  Cs  Cs94  1  0.36905383  0.54438350  0.83129433  1
  Cs  Cs95  1  0.36905383  0.54438350  0.99796100  1
  Cs  Cs96  1  0.36905383  0.71105017  0.16462767  1
  Cs  Cs97  1  0.36905383  0.71105017  0.33129433  1
  Cs  Cs98  1  0.36905383  0.71105017  0.49796100  1
  Cs  Cs99  1  0.36905383  0.71105017  0.66462767  1
  Cs  Cs100  1  0.36905383  0.71105017  0.83129433  1
  Cs  Cs101  1  0.36905383  0.71105017  0.99796100  1
  Cs  Cs102  1  0.36905383  0.87771683  0.16462767  1
  Cs  Cs103  1  0.36905383  0.87771683  0.33129433  1
  Cs  Cs104  1  0.36905383  0.87771683  0.49796100  1
  Cs  Cs105  1  0.36905383  0.87771683  0.66462767  1
  Cs  Cs106  1  0.36905383  0.87771683  0.83129433  1
  Cs  Cs107  1  0.36905383  0.87771683  0.99796100  1
  Cs  Cs108  1  0.53572050  0.04438350  0.16462767  1
  Cs  Cs109  1  0.53572050  0.04438350  0.33129433  1
  Cs  Cs110  1  0.53572050  0.04438350  0.49796100  1
  Cs  Cs111  1  0.53572050  0.04438350  0.66462767  1
  Cs  Cs112  1  0.53572050  0.04438350  0.83129433  1
  Cs  Cs113  1  0.53572050  0.04438350  0.99796100  1
  Cs  Cs114  1  0.53572050  0.21105017  0.16462767  1
  Cs  Cs115  1  0.53572050  0.21105017  0.33129433  1
  Cs  Cs116  1  0.53572050  0.21105017  0.49796100  1
  Cs  Cs117  1  0.53572050  0.21105017  0.66462767  1
  Cs  Cs118  1  0.53572050  0.21105017  0.83129433  1
  Cs  Cs119  1  0.53572050  0.21105017  0.99796100  1
  Cs  Cs120  1  0.53572050  0.37771683  0.16462767  1
  Cs  Cs121  1  0.53572050  0.37771683  0.33129433  1
  Cs  Cs122  1  0.53572050  0.37771683  0.49796100  1
  Cs  Cs123  1  0.53572050  0.37771683  0.66462767  1
  Cs  Cs124  1  0.53572050  0.37771683  0.83129433  1
  Cs  Cs125  1  0.53572050  0.37771683  0.99796100  1
  Cs  Cs126  1  0.53572050  0.54438350  0.16462767  1
  Cs  Cs127  1  0.53572050  0.54438350  0.33129433  1
  Cs  Cs128  1  0.53572050  0.54438350  0.49796100  1
  Cs  Cs129  1  0.53572050  0.54438350  0.66462767  1
  Cs  Cs130  1  0.53572050  0.54438350  0.83129433  1
  Cs  Cs131  1  0.53572050  0.54438350  0.99796100  1
  Cs  Cs132  1  0.53572050  0.71105017  0.16462767  1
  Cs  Cs133  1  0.53572050  0.71105017  0.33129433  1
  Cs  Cs134  1  0.53572050  0.71105017  0.49796100  1
  Cs  Cs135  1  0.53572050  0.71105017  0.66462767  1
  Cs  Cs136  1  0.53572050  0.71105017  0.83129433  1
  Cs  Cs137  1  0.53572050  0.71105017  0.99796100  1
  Cs  Cs138  1  0.53572050  0.87771683  0.16462767  1
  Cs  Cs139  1  0.53572050  0.87771683  0.33129433  1
  Cs  Cs140  1  0.53572050  0.87771683  0.49796100  1
  Cs  Cs141  1  0.53572050  0.87771683  0.66462767  1
  Cs  Cs142  1  0.53572050  0.87771683  0.83129433  1
  Cs  Cs143  1  0.53572050  0.87771683  0.99796100  1
  Cs  Cs144  1  0.70238717  0.04438350  0.16462767  1
  Cs  Cs145  1  0.70238717  0.04438350  0.33129433  1
  Cs  Cs146  1  0.70238717  0.04438350  0.49796100  1
  Cs  Cs147  1  0.70238717  0.04438350  0.66462767  1
  Cs  Cs148  1  0.70238717  0.04438350  0.83129433  1
  Cs  Cs149  1  0.70238717  0.04438350  0.99796100  1
  Cs  Cs150  1  0.70238717  0.21105017  0.16462767  1
  Cs  Cs151  1  0.70238717  0.21105017  0.33129433  1
  Cs  Cs152  1  0.70238717  0.21105017  0.49796100  1
  Cs  Cs153  1  0.70238717  0.21105017  0.66462767  1
  Cs  Cs154  1  0.70238717  0.21105017  0.83129433  1
  Cs  Cs155  1  0.70238717  0.21105017  0.99796100  1
  Cs  Cs156  1  0.70238717  0.37771683  0.16462767  1
  Cs  Cs157  1  0.70238717  0.37771683  0.33129433  1
  Cs  Cs158  1  0.70238717  0.37771683  0.49796100  1
  Cs  Cs159  1  0.70238717  0.37771683  0.66462767  1
  Cs  Cs160  1  0.70238717  0.37771683  0.83129433  1
  Cs  Cs161  1  0.70238717  0.37771683  0.99796100  1
  Cs  Cs162  1  0.70238717  0.54438350  0.16462767  1
  Cs  Cs163  1  0.70238717  0.54438350  0.33129433  1
  Cs  Cs164  1  0.70238717  0.54438350  0.49796100  1
  Cs  Cs165  1  0.70238717  0.54438350  0.66462767  1
  Cs  Cs166  1  0.70238717  0.54438350  0.83129433  1
  Cs  Cs167  1  0.70238717  0.54438350  0.99796100  1
  Cs  Cs168  1  0.70238717  0.71105017  0.16462767  1
  Cs  Cs169  1  0.70238717  0.71105017  0.33129433  1
  Cs  Cs170  1  0.70238717  0.71105017  0.49796100  1
  Cs  Cs171  1  0.70238717  0.71105017  0.66462767  1
  Cs  Cs172  1  0.70238717  0.71105017  0.83129433  1
  Cs  Cs173  1  0.70238717  0.71105017  0.99796100  1
  Cs  Cs174  1  0.70238717  0.87771683  0.16462767  1
  Cs  Cs175  1  0.70238717  0.87771683  0.33129433  1
  Cs  Cs176  1  0.70238717  0.87771683  0.49796100  1
  Cs  Cs177  1  0.70238717  0.87771683  0.66462767  1
  Cs  Cs178  1  0.70238717  0.87771683  0.83129433  1
  Cs  Cs179  1  0.70238717  0.87771683  0.99796100  1
  Cs  Cs180  1  0.86905383  0.04438350  0.16462767  1
  Cs  Cs181  1  0.86905383  0.04438350  0.33129433  1
  Cs  Cs182  1  0.86905383  0.04438350  0.49796100  1
  Cs  Cs183  1  0.86905383  0.04438350  0.66462767  1
  Cs  Cs184  1  0.86905383  0.04438350  0.83129433  1
  Cs  Cs185  1  0.86905383  0.04438350  0.99796100  1
  Cs  Cs186  1  0.86905383  0.21105017  0.16462767  1
  Cs  Cs187  1  0.86905383  0.21105017  0.33129433  1
  Cs  Cs188  1  0.86905383  0.21105017  0.49796100  1
  Cs  Cs189  1  0.86905383  0.21105017  0.66462767  1
  Cs  Cs190  1  0.86905383  0.21105017  0.83129433  1
  Cs  Cs191  1  0.86905383  0.21105017  0.99796100  1
  Cs  Cs192  1  0.86905383  0.37771683  0.16462767  1
  Cs  Cs193  1  0.86905383  0.37771683  0.33129433  1
  Cs  Cs194  1  0.86905383  0.37771683  0.49796100  1
  Cs  Cs195  1  0.86905383  0.37771683  0.66462767  1
  Cs  Cs196  1  0.86905383  0.37771683  0.83129433  1
  Cs  Cs197  1  0.86905383  0.37771683  0.99796100  1
  Cs  Cs198  1  0.86905383  0.54438350  0.16462767  1
  Cs  Cs199  1  0.86905383  0.54438350  0.33129433  1
  Cs  Cs200  1  0.86905383  0.54438350  0.49796100  1
  Cs  Cs201  1  0.86905383  0.54438350  0.66462767  1
  Cs  Cs202  1  0.86905383  0.54438350  0.83129433  1
  Cs  Cs203  1  0.86905383  0.54438350  0.99796100  1
  Cs  Cs204  1  0.86905383  0.71105017  0.16462767  1
  Cs  Cs205  1  0.86905383  0.71105017  0.33129433  1
  Cs  Cs206  1  0.86905383  0.71105017  0.49796100  1
  Cs  Cs207  1  0.86905383  0.71105017  0.66462767  1
  Cs  Cs208  1  0.86905383  0.71105017  0.83129433  1
  Cs  Cs209  1  0.86905383  0.71105017  0.99796100  1
  Cs  Cs210  1  0.86905383  0.87771683  0.16462767  1
  Cs  Cs211  1  0.86905383  0.87771683  0.33129433  1
  Cs  Cs212  1  0.86905383  0.87771683  0.49796100  1
  Cs  Cs213  1  0.86905383  0.87771683  0.66462767  1
  Cs  Cs214  1  0.86905383  0.87771683  0.83129433  1
  Cs  Cs215  1  0.86905383  0.87771683  0.99796100  1
  Cs  Cs216  1  0.13094617  0.12228317  0.00203900  1
  Cs  Cs217  1  0.13094617  0.12228317  0.16870567  1
  Cs  Cs218  1  0.13094617  0.12228317  0.33537233  1
  Cs  Cs219  1  0.13094617  0.12228317  0.50203900  1
  Cs  Cs220  1  0.13094617  0.12228317  0.66870567  1
  Cs  Cs221  1  0.13094617  0.12228317  0.83537233  1
  Cs  Cs222  1  0.13094617  0.28894983  0.00203900  1
  Cs  Cs223  1  0.13094617  0.28894983  0.16870567  1
  Cs  Cs224  1  0.13094617  0.28894983  0.33537233  1
  Cs  Cs225  1  0.13094617  0.28894983  0.50203900  1
  Cs  Cs226  1  0.13094617  0.28894983  0.66870567  1
  Cs  Cs227  1  0.13094617  0.28894983  0.83537233  1
  Cs  Cs228  1  0.13094617  0.45561650  0.00203900  1
  Cs  Cs229  1  0.13094617  0.45561650  0.16870567  1
  Cs  Cs230  1  0.13094617  0.45561650  0.33537233  1
  Cs  Cs231  1  0.13094617  0.45561650  0.50203900  1
  Cs  Cs232  1  0.13094617  0.45561650  0.66870567  1
  Cs  Cs233  1  0.13094617  0.45561650  0.83537233  1
  Cs  Cs234  1  0.13094617  0.62228317  0.00203900  1
  Cs  Cs235  1  0.13094617  0.62228317  0.16870567  1
  Cs  Cs236  1  0.13094617  0.62228317  0.33537233  1
  Cs  Cs237  1  0.13094617  0.62228317  0.50203900  1
  Cs  Cs238  1  0.13094617  0.62228317  0.66870567  1
  Cs  Cs239  1  0.13094617  0.62228317  0.83537233  1
  Cs  Cs240  1  0.13094617  0.78894983  0.00203900  1
  Cs  Cs241  1  0.13094617  0.78894983  0.16870567  1
  Cs  Cs242  1  0.13094617  0.78894983  0.33537233  1
  Cs  Cs243  1  0.13094617  0.78894983  0.50203900  1
  Cs  Cs244  1  0.13094617  0.78894983  0.66870567  1
  Cs  Cs245  1  0.13094617  0.78894983  0.83537233  1
  Cs  Cs246  1  0.13094617  0.95561650  0.00203900  1
  Cs  Cs247  1  0.13094617  0.95561650  0.16870567  1
  Cs  Cs248  1  0.13094617  0.95561650  0.33537233  1
  Cs  Cs249  1  0.13094617  0.95561650  0.50203900  1
  Cs  Cs250  1  0.13094617  0.95561650  0.66870567  1
  Cs  Cs251  1  0.13094617  0.95561650  0.83537233  1
  Cs  Cs252  1  0.29761283  0.12228317  0.00203900  1
  Cs  Cs253  1  0.29761283  0.12228317  0.16870567  1
  Cs  Cs254  1  0.29761283  0.12228317  0.33537233  1
  Cs  Cs255  1  0.29761283  0.12228317  0.50203900  1
  Cs  Cs256  1  0.29761283  0.12228317  0.66870567  1
  Cs  Cs257  1  0.29761283  0.12228317  0.83537233  1
  Cs  Cs258  1  0.29761283  0.28894983  0.00203900  1
  Cs  Cs259  1  0.29761283  0.28894983  0.16870567  1
  Cs  Cs260  1  0.29761283  0.28894983  0.33537233  1
  Cs  Cs261  1  0.29761283  0.28894983  0.50203900  1
  Cs  Cs262  1  0.29761283  0.28894983  0.66870567  1
  Cs  Cs263  1  0.29761283  0.28894983  0.83537233  1
  Cs  Cs264  1  0.29761283  0.45561650  0.00203900  1
  Cs  Cs265  1  0.29761283  0.45561650  0.16870567  1
  Cs  Cs266  1  0.29761283  0.45561650  0.33537233  1
  Cs  Cs267  1  0.29761283  0.45561650  0.50203900  1
  Cs  Cs268  1  0.29761283  0.45561650  0.66870567  1
  Cs  Cs269  1  0.29761283  0.45561650  0.83537233  1
  Cs  Cs270  1  0.29761283  0.62228317  0.00203900  1
  Cs  Cs271  1  0.29761283  0.62228317  0.16870567  1
  Cs  Cs272  1  0.29761283  0.62228317  0.33537233  1
  Cs  Cs273  1  0.29761283  0.62228317  0.50203900  1
  Cs  Cs274  1  0.29761283  0.62228317  0.66870567  1
  Cs  Cs275  1  0.29761283  0.62228317  0.83537233  1
  Cs  Cs276  1  0.29761283  0.78894983  0.00203900  1
  Cs  Cs277  1  0.29761283  0.78894983  0.16870567  1
  Cs  Cs278  1  0.29761283  0.78894983  0.33537233  1
  Cs  Cs279  1  0.29761283  0.78894983  0.50203900  1
  Cs  Cs280  1  0.29761283  0.78894983  0.66870567  1
  Cs  Cs281  1  0.29761283  0.78894983  0.83537233  1
  Cs  Cs282  1  0.29761283  0.95561650  0.00203900  1
  Cs  Cs283  1  0.29761283  0.95561650  0.16870567  1
  Cs  Cs284  1  0.29761283  0.95561650  0.33537233  1
  Cs  Cs285  1  0.29761283  0.95561650  0.50203900  1
  Cs  Cs286  1  0.29761283  0.95561650  0.66870567  1
  Cs  Cs287  1  0.29761283  0.95561650  0.83537233  1
  Cs  Cs288  1  0.46427950  0.12228317  0.00203900  1
  Cs  Cs289  1  0.46427950  0.12228317  0.16870567  1
  Cs  Cs290  1  0.46427950  0.12228317  0.33537233  1
  Cs  Cs291  1  0.46427950  0.12228317  0.50203900  1
  Cs  Cs292  1  0.46427950  0.12228317  0.66870567  1
  Cs  Cs293  1  0.46427950  0.12228317  0.83537233  1
  Cs  Cs294  1  0.46427950  0.28894983  0.00203900  1
  Cs  Cs295  1  0.46427950  0.28894983  0.16870567  1
  Cs  Cs296  1  0.46427950  0.28894983  0.33537233  1
  Cs  Cs297  1  0.46427950  0.28894983  0.50203900  1
  Cs  Cs298  1  0.46427950  0.28894983  0.66870567  1
  Cs  Cs299  1  0.46427950  0.28894983  0.83537233  1
  Cs  Cs300  1  0.46427950  0.45561650  0.00203900  1
  Cs  Cs301  1  0.46427950  0.45561650  0.16870567  1
  Cs  Cs302  1  0.46427950  0.45561650  0.33537233  1
  Cs  Cs303  1  0.46427950  0.45561650  0.50203900  1
  Cs  Cs304  1  0.46427950  0.45561650  0.66870567  1
  Cs  Cs305  1  0.46427950  0.45561650  0.83537233  1
  Cs  Cs306  1  0.46427950  0.62228317  0.00203900  1
  Cs  Cs307  1  0.46427950  0.62228317  0.16870567  1
  Cs  Cs308  1  0.46427950  0.62228317  0.33537233  1
  Cs  Cs309  1  0.46427950  0.62228317  0.50203900  1
  Cs  Cs310  1  0.46427950  0.62228317  0.66870567  1
  Cs  Cs311  1  0.46427950  0.62228317  0.83537233  1
  Cs  Cs312  1  0.46427950  0.78894983  0.00203900  1
  Cs  Cs313  1  0.46427950  0.78894983  0.16870567  1
  Cs  Cs314  1  0.46427950  0.78894983  0.33537233  1
  Cs  Cs315  1  0.46427950  0.78894983  0.50203900  1
  Cs  Cs316  1  0.46427950  0.78894983  0.66870567  1
  Cs  Cs317  1  0.46427950  0.78894983  0.83537233  1
  Cs  Cs318  1  0.46427950  0.95561650  0.00203900  1
  Cs  Cs319  1  0.46427950  0.95561650  0.16870567  1
  Cs  Cs320  1  0.46427950  0.95561650  0.33537233  1
  Cs  Cs321  1  0.46427950  0.95561650  0.50203900  1
  Cs  Cs322  1  0.46427950  0.95561650  0.66870567  1
  Cs  Cs323  1  0.46427950  0.95561650  0.83537233  1
  Cs  Cs324  1  0.63094617  0.12228317  0.00203900  1
  Cs  Cs325  1  0.63094617  0.12228317  0.16870567  1
  Cs  Cs326  1  0.63094617  0.12228317  0.33537233  1
  Cs  Cs327  1  0.63094617  0.12228317  0.50203900  1
  Cs  Cs328  1  0.63094617  0.12228317  0.66870567  1
  Cs  Cs329  1  0.63094617  0.12228317  0.83537233  1
  Cs  Cs330  1  0.63094617  0.28894983  0.00203900  1
  Cs  Cs331  1  0.63094617  0.28894983  0.16870567  1
  Cs  Cs332  1  0.63094617  0.28894983  0.33537233  1
  Cs  Cs333  1  0.63094617  0.28894983  0.50203900  1
  Cs  Cs334  1  0.63094617  0.28894983  0.66870567  1
  Cs  Cs335  1  0.63094617  0.28894983  0.83537233  1
  Cs  Cs336  1  0.63094617  0.45561650  0.00203900  1
  Cs  Cs337  1  0.63094617  0.45561650  0.16870567  1
  Cs  Cs338  1  0.63094617  0.45561650  0.33537233  1
  Cs  Cs339  1  0.63094617  0.45561650  0.50203900  1
  Cs  Cs340  1  0.63094617  0.45561650  0.66870567  1
  Cs  Cs341  1  0.63094617  0.45561650  0.83537233  1
  Cs  Cs342  1  0.63094617  0.62228317  0.00203900  1
  Cs  Cs343  1  0.63094617  0.62228317  0.16870567  1
  Cs  Cs344  1  0.63094617  0.62228317  0.33537233  1
  Cs  Cs345  1  0.63094617  0.62228317  0.50203900  1
  Cs  Cs346  1  0.63094617  0.62228317  0.66870567  1
  Cs  Cs347  1  0.63094617  0.62228317  0.83537233  1
  Cs  Cs348  1  0.63094617  0.78894983  0.00203900  1
  Cs  Cs349  1  0.63094617  0.78894983  0.16870567  1
  Cs  Cs350  1  0.63094617  0.78894983  0.33537233  1
  Cs  Cs351  1  0.63094617  0.78894983  0.50203900  1
  Cs  Cs352  1  0.63094617  0.78894983  0.66870567  1
  Cs  Cs353  1  0.63094617  0.78894983  0.83537233  1
  Cs  Cs354  1  0.63094617  0.95561650  0.00203900  1
  Cs  Cs355  1  0.63094617  0.95561650  0.16870567  1
  Cs  Cs356  1  0.63094617  0.95561650  0.33537233  1
  Cs  Cs357  1  0.63094617  0.95561650  0.50203900  1
  Cs  Cs358  1  0.63094617  0.95561650  0.66870567  1
  Cs  Cs359  1  0.63094617  0.95561650  0.83537233  1
  Cs  Cs360  1  0.79761283  0.12228317  0.00203900  1
  Cs  Cs361  1  0.79761283  0.12228317  0.16870567  1
  Cs  Cs362  1  0.79761283  0.12228317  0.33537233  1
  Cs  Cs363  1  0.79761283  0.12228317  0.50203900  1
  Cs  Cs364  1  0.79761283  0.12228317  0.66870567  1
  Cs  Cs365  1  0.79761283  0.12228317  0.83537233  1
  Cs  Cs366  1  0.79761283  0.28894983  0.00203900  1
  Cs  Cs367  1  0.79761283  0.28894983  0.16870567  1
  Cs  Cs368  1  0.79761283  0.28894983  0.33537233  1
  Cs  Cs369  1  0.79761283  0.28894983  0.50203900  1
  Cs  Cs370  1  0.79761283  0.28894983  0.66870567  1
  Cs  Cs371  1  0.79761283  0.28894983  0.83537233  1
  Cs  Cs372  1  0.79761283  0.45561650  0.00203900  1
  Cs  Cs373  1  0.79761283  0.45561650  0.16870567  1
  Cs  Cs374  1  0.79761283  0.45561650  0.33537233  1
  Cs  Cs375  1  0.79761283  0.45561650  0.50203900  1
  Cs  Cs376  1  0.79761283  0.45561650  0.66870567  1
  Cs  Cs377  1  0.79761283  0.45561650  0.83537233  1
  Cs  Cs378  1  0.79761283  0.62228317  0.00203900  1
  Cs  Cs379  1  0.79761283  0.62228317  0.16870567  1
  Cs  Cs380  1  0.79761283  0.62228317  0.33537233  1
  Cs  Cs381  1  0.79761283  0.62228317  0.50203900  1
  Cs  Cs382  1  0.79761283  0.62228317  0.66870567  1
  Cs  Cs383  1  0.79761283  0.62228317  0.83537233  1
  Cs  Cs384  1  0.79761283  0.78894983  0.00203900  1
  Cs  Cs385  1  0.79761283  0.78894983  0.16870567  1
  Cs  Cs386  1  0.79761283  0.78894983  0.33537233  1
  Cs  Cs387  1  0.79761283  0.78894983  0.50203900  1
  Cs  Cs388  1  0.79761283  0.78894983  0.66870567  1
  Cs  Cs389  1  0.79761283  0.78894983  0.83537233  1
  Cs  Cs390  1  0.79761283  0.95561650  0.00203900  1
  Cs  Cs391  1  0.79761283  0.95561650  0.16870567  1
  Cs  Cs392  1  0.79761283  0.95561650  0.33537233  1
  Cs  Cs393  1  0.79761283  0.95561650  0.50203900  1
  Cs  Cs394  1  0.79761283  0.95561650  0.66870567  1
  Cs  Cs395  1  0.79761283  0.95561650  0.83537233  1
  Cs  Cs396  1  0.96427950  0.12228317  0.00203900  1
  Cs  Cs397  1  0.96427950  0.12228317  0.16870567  1
  Cs  Cs398  1  0.96427950  0.12228317  0.33537233  1
  Cs  Cs399  1  0.96427950  0.12228317  0.50203900  1
  Cs  Cs400  1  0.96427950  0.12228317  0.66870567  1
  Cs  Cs401  1  0.96427950  0.12228317  0.83537233  1
  Cs  Cs402  1  0.96427950  0.28894983  0.00203900  1
  Cs  Cs403  1  0.96427950  0.28894983  0.16870567  1
  Cs  Cs404  1  0.96427950  0.28894983  0.33537233  1
  Cs  Cs405  1  0.96427950  0.28894983  0.50203900  1
  Cs  Cs406  1  0.96427950  0.28894983  0.66870567  1
  Cs  Cs407  1  0.96427950  0.28894983  0.83537233  1
  Cs  Cs408  1  0.96427950  0.45561650  0.00203900  1
  Cs  Cs409  1  0.96427950  0.45561650  0.16870567  1
  Cs  Cs410  1  0.96427950  0.45561650  0.33537233  1
  Cs  Cs411  1  0.96427950  0.45561650  0.50203900  1
  Cs  Cs412  1  0.96427950  0.45561650  0.66870567  1
  Cs  Cs413  1  0.96427950  0.45561650  0.83537233  1
  Cs  Cs414  1  0.96427950  0.62228317  0.00203900  1
  Cs  Cs415  1  0.96427950  0.62228317  0.16870567  1
  Cs  Cs416  1  0.96427950  0.62228317  0.33537233  1
  Cs  Cs417  1  0.96427950  0.62228317  0.50203900  1
  Cs  Cs418  1  0.96427950  0.62228317  0.66870567  1
  Cs  Cs419  1  0.96427950  0.62228317  0.83537233  1
  Cs  Cs420  1  0.96427950  0.78894983  0.00203900  1
  Cs  Cs421  1  0.96427950  0.78894983  0.16870567  1
  Cs  Cs422  1  0.96427950  0.78894983  0.33537233  1
  Cs  Cs423  1  0.96427950  0.78894983  0.50203900  1
  Cs  Cs424  1  0.96427950  0.78894983  0.66870567  1
  Cs  Cs425  1  0.96427950  0.78894983  0.83537233  1
  Cs  Cs426  1  0.96427950  0.95561650  0.00203900  1
  Cs  Cs427  1  0.96427950  0.95561650  0.16870567  1
  Cs  Cs428  1  0.96427950  0.95561650  0.33537233  1
  Cs  Cs429  1  0.96427950  0.95561650  0.50203900  1
  Cs  Cs430  1  0.96427950  0.95561650  0.66870567  1
  Cs  Cs431  1  0.96427950  0.95561650  0.83537233  1
  Cs  Cs432  1  0.08088583  0.14252433  0.11797933  1
  Cs  Cs433  1  0.08088583  0.14252433  0.28464600  1
  Cs  Cs434  1  0.08088583  0.14252433  0.45131267  1
  Cs  Cs435  1  0.08088583  0.14252433  0.61797933  1
  Cs  Cs436  1  0.08088583  0.14252433  0.78464600  1
  Cs  Cs437  1  0.08088583  0.14252433  0.95131267  1
  Cs  Cs438  1  0.08088583  0.30919100  0.11797933  1
  Cs  Cs439  1  0.08088583  0.30919100  0.28464600  1
  Cs  Cs440  1  0.08088583  0.30919100  0.45131267  1
  Cs  Cs441  1  0.08088583  0.30919100  0.61797933  1
  Cs  Cs442  1  0.08088583  0.30919100  0.78464600  1
  Cs  Cs443  1  0.08088583  0.30919100  0.95131267  1
  Cs  Cs444  1  0.08088583  0.47585767  0.11797933  1
  Cs  Cs445  1  0.08088583  0.47585767  0.28464600  1
  Cs  Cs446  1  0.08088583  0.47585767  0.45131267  1
  Cs  Cs447  1  0.08088583  0.47585767  0.61797933  1
  Cs  Cs448  1  0.08088583  0.47585767  0.78464600  1
  Cs  Cs449  1  0.08088583  0.47585767  0.95131267  1
  Cs  Cs450  1  0.08088583  0.64252433  0.11797933  1
  Cs  Cs451  1  0.08088583  0.64252433  0.28464600  1
  Cs  Cs452  1  0.08088583  0.64252433  0.45131267  1
  Cs  Cs453  1  0.08088583  0.64252433  0.61797933  1
  Cs  Cs454  1  0.08088583  0.64252433  0.78464600  1
  Cs  Cs455  1  0.08088583  0.64252433  0.95131267  1
  Cs  Cs456  1  0.08088583  0.80919100  0.11797933  1
  Cs  Cs457  1  0.08088583  0.80919100  0.28464600  1
  Cs  Cs458  1  0.08088583  0.80919100  0.45131267  1
  Cs  Cs459  1  0.08088583  0.80919100  0.61797933  1
  Cs  Cs460  1  0.08088583  0.80919100  0.78464600  1
  Cs  Cs461  1  0.08088583  0.80919100  0.95131267  1
  Cs  Cs462  1  0.08088583  0.97585767  0.11797933  1
  Cs  Cs463  1  0.08088583  0.97585767  0.28464600  1
  Cs  Cs464  1  0.08088583  0.97585767  0.45131267  1
  Cs  Cs465  1  0.08088583  0.97585767  0.61797933  1
  Cs  Cs466  1  0.08088583  0.97585767  0.78464600  1
  Cs  Cs467  1  0.08088583  0.97585767  0.95131267  1
  Cs  Cs468  1  0.24755250  0.14252433  0.11797933  1
  Cs  Cs469  1  0.24755250  0.14252433  0.28464600  1
  Cs  Cs470  1  0.24755250  0.14252433  0.45131267  1
  Cs  Cs471  1  0.24755250  0.14252433  0.61797933  1
  Cs  Cs472  1  0.24755250  0.14252433  0.78464600  1
  Cs  Cs473  1  0.24755250  0.14252433  0.95131267  1
  Cs  Cs474  1  0.24755250  0.30919100  0.11797933  1
  Cs  Cs475  1  0.24755250  0.30919100  0.28464600  1
  Cs  Cs476  1  0.24755250  0.30919100  0.45131267  1
  Cs  Cs477  1  0.24755250  0.30919100  0.61797933  1
  Cs  Cs478  1  0.24755250  0.30919100  0.78464600  1
  Cs  Cs479  1  0.24755250  0.30919100  0.95131267  1
  Cs  Cs480  1  0.24755250  0.47585767  0.11797933  1
  Cs  Cs481  1  0.24755250  0.47585767  0.28464600  1
  Cs  Cs482  1  0.24755250  0.47585767  0.45131267  1
  Cs  Cs483  1  0.24755250  0.47585767  0.61797933  1
  Cs  Cs484  1  0.24755250  0.47585767  0.78464600  1
  Cs  Cs485  1  0.24755250  0.47585767  0.95131267  1
  Cs  Cs486  1  0.24755250  0.64252433  0.11797933  1
  Cs  Cs487  1  0.24755250  0.64252433  0.28464600  1
  Cs  Cs488  1  0.24755250  0.64252433  0.45131267  1
  Cs  Cs489  1  0.24755250  0.64252433  0.61797933  1
  Cs  Cs490  1  0.24755250  0.64252433  0.78464600  1
  Cs  Cs491  1  0.24755250  0.64252433  0.95131267  1
  Cs  Cs492  1  0.24755250  0.80919100  0.11797933  1
  Cs  Cs493  1  0.24755250  0.80919100  0.28464600  1
  Cs  Cs494  1  0.24755250  0.80919100  0.45131267  1
  Cs  Cs495  1  0.24755250  0.80919100  0.61797933  1
  Cs  Cs496  1  0.24755250  0.80919100  0.78464600  1
  Cs  Cs497  1  0.24755250  0.80919100  0.95131267  1
  Cs  Cs498  1  0.24755250  0.97585767  0.11797933  1
  Cs  Cs499  1  0.24755250  0.97585767  0.28464600  1
  Cs  Cs500  1  0.24755250  0.97585767  0.45131267  1
  Cs  Cs501  1  0.24755250  0.97585767  0.61797933  1
  Cs  Cs502  1  0.24755250  0.97585767  0.78464600  1
  Cs  Cs503  1  0.24755250  0.97585767  0.95131267  1
  Cs  Cs504  1  0.41421917  0.14252433  0.11797933  1
  Cs  Cs505  1  0.41421917  0.14252433  0.28464600  1
  Cs  Cs506  1  0.41421917  0.14252433  0.45131267  1
  Cs  Cs507  1  0.41421917  0.14252433  0.61797933  1
  Cs  Cs508  1  0.41421917  0.14252433  0.78464600  1
  Cs  Cs509  1  0.41421917  0.14252433  0.95131267  1
  Cs  Cs510  1  0.41421917  0.30919100  0.11797933  1
  Cs  Cs511  1  0.41421917  0.30919100  0.28464600  1
  Cs  Cs512  1  0.41421917  0.30919100  0.45131267  1
  Cs  Cs513  1  0.41421917  0.30919100  0.61797933  1
  Cs  Cs514  1  0.41421917  0.30919100  0.78464600  1
  Cs  Cs515  1  0.41421917  0.30919100  0.95131267  1
  Cs  Cs516  1  0.41421917  0.47585767  0.11797933  1
  Cs  Cs517  1  0.41421917  0.47585767  0.28464600  1
  Cs  Cs518  1  0.41421917  0.47585767  0.45131267  1
  Cs  Cs519  1  0.41421917  0.47585767  0.61797933  1
  Cs  Cs520  1  0.41421917  0.47585767  0.78464600  1
  Cs  Cs521  1  0.41421917  0.47585767  0.95131267  1
  Cs  Cs522  1  0.41421917  0.64252433  0.11797933  1
  Cs  Cs523  1  0.41421917  0.64252433  0.28464600  1
  Cs  Cs524  1  0.41421917  0.64252433  0.45131267  1
  Cs  Cs525  1  0.41421917  0.64252433  0.61797933  1
  Cs  Cs526  1  0.41421917  0.64252433  0.78464600  1
  Cs  Cs527  1  0.41421917  0.64252433  0.95131267  1
  Cs  Cs528  1  0.41421917  0.80919100  0.11797933  1
  Cs  Cs529  1  0.41421917  0.80919100  0.28464600  1
  Cs  Cs530  1  0.41421917  0.80919100  0.45131267  1
  Cs  Cs531  1  0.41421917  0.80919100  0.61797933  1
  Cs  Cs532  1  0.41421917  0.80919100  0.78464600  1
  Cs  Cs533  1  0.41421917  0.80919100  0.95131267  1
  Cs  Cs534  1  0.41421917  0.97585767  0.11797933  1
  Cs  Cs535  1  0.41421917  0.97585767  0.28464600  1
  Cs  Cs536  1  0.41421917  0.97585767  0.45131267  1
  Cs  Cs537  1  0.41421917  0.97585767  0.61797933  1
  Cs  Cs538  1  0.41421917  0.97585767  0.78464600  1
  Cs  Cs539  1  0.41421917  0.97585767  0.95131267  1
  Cs  Cs540  1  0.58088583  0.14252433  0.11797933  1
  Cs  Cs541  1  0.58088583  0.14252433  0.28464600  1
  Cs  Cs542  1  0.58088583  0.14252433  0.45131267  1
  Cs  Cs543  1  0.58088583  0.14252433  0.61797933  1
  Cs  Cs544  1  0.58088583  0.14252433  0.78464600  1
  Cs  Cs545  1  0.58088583  0.14252433  0.95131267  1
  Cs  Cs546  1  0.58088583  0.30919100  0.11797933  1
  Cs  Cs547  1  0.58088583  0.30919100  0.28464600  1
  Cs  Cs548  1  0.58088583  0.30919100  0.45131267  1
  Cs  Cs549  1  0.58088583  0.30919100  0.61797933  1
  Cs  Cs550  1  0.58088583  0.30919100  0.78464600  1
  Cs  Cs551  1  0.58088583  0.30919100  0.95131267  1
  Cs  Cs552  1  0.58088583  0.47585767  0.11797933  1
  Cs  Cs553  1  0.58088583  0.47585767  0.28464600  1
  Cs  Cs554  1  0.58088583  0.47585767  0.45131267  1
  Cs  Cs555  1  0.58088583  0.47585767  0.61797933  1
  Cs  Cs556  1  0.58088583  0.47585767  0.78464600  1
  Cs  Cs557  1  0.58088583  0.47585767  0.95131267  1
  Cs  Cs558  1  0.58088583  0.64252433  0.11797933  1
  Cs  Cs559  1  0.58088583  0.64252433  0.28464600  1
  Cs  Cs560  1  0.58088583  0.64252433  0.45131267  1
  Cs  Cs561  1  0.58088583  0.64252433  0.61797933  1
  Cs  Cs562  1  0.58088583  0.64252433  0.78464600  1
  Cs  Cs563  1  0.58088583  0.64252433  0.95131267  1
  Cs  Cs564  1  0.58088583  0.80919100  0.11797933  1
  Cs  Cs565  1  0.58088583  0.80919100  0.28464600  1
  Cs  Cs566  1  0.58088583  0.80919100  0.45131267  1
  Cs  Cs567  1  0.58088583  0.80919100  0.61797933  1
  Cs  Cs568  1  0.58088583  0.80919100  0.78464600  1
  Cs  Cs569  1  0.58088583  0.80919100  0.95131267  1
  Cs  Cs570  1  0.58088583  0.97585767  0.11797933  1
  Cs  Cs571  1  0.58088583  0.97585767  0.28464600  1
  Cs  Cs572  1  0.58088583  0.97585767  0.45131267  1
  Cs  Cs573  1  0.58088583  0.97585767  0.61797933  1
  Cs  Cs574  1  0.58088583  0.97585767  0.78464600  1
  Cs  Cs575  1  0.58088583  0.97585767  0.95131267  1
  Cs  Cs576  1  0.74755250  0.14252433  0.11797933  1
  Cs  Cs577  1  0.74755250  0.14252433  0.28464600  1
  Cs  Cs578  1  0.74755250  0.14252433  0.45131267  1
  Cs  Cs579  1  0.74755250  0.14252433  0.61797933  1
  Cs  Cs580  1  0.74755250  0.14252433  0.78464600  1
  Cs  Cs581  1  0.74755250  0.14252433  0.95131267  1
  Cs  Cs582  1  0.74755250  0.30919100  0.11797933  1
  Cs  Cs583  1  0.74755250  0.30919100  0.28464600  1
  Cs  Cs584  1  0.74755250  0.30919100  0.45131267  1
  Cs  Cs585  1  0.74755250  0.30919100  0.61797933  1
  Cs  Cs586  1  0.74755250  0.30919100  0.78464600  1
  Cs  Cs587  1  0.74755250  0.30919100  0.95131267  1
  Cs  Cs588  1  0.74755250  0.47585767  0.11797933  1
  Cs  Cs589  1  0.74755250  0.47585767  0.28464600  1
  Cs  Cs590  1  0.74755250  0.47585767  0.45131267  1
  Cs  Cs591  1  0.74755250  0.47585767  0.61797933  1
  Cs  Cs592  1  0.74755250  0.47585767  0.78464600  1
  Cs  Cs593  1  0.74755250  0.47585767  0.95131267  1
  Cs  Cs594  1  0.74755250  0.64252433  0.11797933  1
  Cs  Cs595  1  0.74755250  0.64252433  0.28464600  1
  Cs  Cs596  1  0.74755250  0.64252433  0.45131267  1
  Cs  Cs597  1  0.74755250  0.64252433  0.61797933  1
  Cs  Cs598  1  0.74755250  0.64252433  0.78464600  1
  Cs  Cs599  1  0.74755250  0.64252433  0.95131267  1
  Cs  Cs600  1  0.74755250  0.80919100  0.11797933  1
  Cs  Cs601  1  0.74755250  0.80919100  0.28464600  1
  Cs  Cs602  1  0.74755250  0.80919100  0.45131267  1
  Cs  Cs603  1  0.74755250  0.80919100  0.61797933  1
  Cs  Cs604  1  0.74755250  0.80919100  0.78464600  1
  Cs  Cs605  1  0.74755250  0.80919100  0.95131267  1
  Cs  Cs606  1  0.74755250  0.97585767  0.11797933  1
  Cs  Cs607  1  0.74755250  0.97585767  0.28464600  1
  Cs  Cs608  1  0.74755250  0.97585767  0.45131267  1
  Cs  Cs609  1  0.74755250  0.97585767  0.61797933  1
  Cs  Cs610  1  0.74755250  0.97585767  0.78464600  1
  Cs  Cs611  1  0.74755250  0.97585767  0.95131267  1
  Cs  Cs612  1  0.91421917  0.14252433  0.11797933  1
  Cs  Cs613  1  0.91421917  0.14252433  0.28464600  1
  Cs  Cs614  1  0.91421917  0.14252433  0.45131267  1
  Cs  Cs615  1  0.91421917  0.14252433  0.61797933  1
  Cs  Cs616  1  0.91421917  0.14252433  0.78464600  1
  Cs  Cs617  1  0.91421917  0.14252433  0.95131267  1
  Cs  Cs618  1  0.91421917  0.30919100  0.11797933  1
  Cs  Cs619  1  0.91421917  0.30919100  0.28464600  1
  Cs  Cs620  1  0.91421917  0.30919100  0.45131267  1
  Cs  Cs621  1  0.91421917  0.30919100  0.61797933  1
  Cs  Cs622  1  0.91421917  0.30919100  0.78464600  1
  Cs  Cs623  1  0.91421917  0.30919100  0.95131267  1
  Cs  Cs624  1  0.91421917  0.47585767  0.11797933  1
  Cs  Cs625  1  0.91421917  0.47585767  0.28464600  1
  Cs  Cs626  1  0.91421917  0.47585767  0.45131267  1
  Cs  Cs627  1  0.91421917  0.47585767  0.61797933  1
  Cs  Cs628  1  0.91421917  0.47585767  0.78464600  1
  Cs  Cs629  1  0.91421917  0.47585767  0.95131267  1
  Cs  Cs630  1  0.91421917  0.64252433  0.11797933  1
  Cs  Cs631  1  0.91421917  0.64252433  0.28464600  1
  Cs  Cs632  1  0.91421917  0.64252433  0.45131267  1
  Cs  Cs633  1  0.91421917  0.64252433  0.61797933  1
  Cs  Cs634  1  0.91421917  0.64252433  0.78464600  1
  Cs  Cs635  1  0.91421917  0.64252433  0.95131267  1
  Cs  Cs636  1  0.91421917  0.80919100  0.11797933  1
  Cs  Cs637  1  0.91421917  0.80919100  0.28464600  1
  Cs  Cs638  1  0.91421917  0.80919100  0.45131267  1
  Cs  Cs639  1  0.91421917  0.80919100  0.61797933  1
  Cs  Cs640  1  0.91421917  0.80919100  0.78464600  1
  Cs  Cs641  1  0.91421917  0.80919100  0.95131267  1
  Cs  Cs642  1  0.91421917  0.97585767  0.11797933  1
  Cs  Cs643  1  0.91421917  0.97585767  0.28464600  1
  Cs  Cs644  1  0.91421917  0.97585767  0.45131267  1
  Cs  Cs645  1  0.91421917  0.97585767  0.61797933  1
  Cs  Cs646  1  0.91421917  0.97585767  0.78464600  1
  Cs  Cs647  1  0.91421917  0.97585767  0.95131267  1
  Cs  Cs648  1  0.08578083  0.02414233  0.04868733  1
  Cs  Cs649  1  0.08578083  0.02414233  0.21535400  1
  Cs  Cs650  1  0.08578083  0.02414233  0.38202067  1
  Cs  Cs651  1  0.08578083  0.02414233  0.54868733  1
  Cs  Cs652  1  0.08578083  0.02414233  0.71535400  1
  Cs  Cs653  1  0.08578083  0.02414233  0.88202067  1
  Cs  Cs654  1  0.08578083  0.19080900  0.04868733  1
  Cs  Cs655  1  0.08578083  0.19080900  0.21535400  1
  Cs  Cs656  1  0.08578083  0.19080900  0.38202067  1
  Cs  Cs657  1  0.08578083  0.19080900  0.54868733  1
  Cs  Cs658  1  0.08578083  0.19080900  0.71535400  1
  Cs  Cs659  1  0.08578083  0.19080900  0.88202067  1
  Cs  Cs660  1  0.08578083  0.35747567  0.04868733  1
  Cs  Cs661  1  0.08578083  0.35747567  0.21535400  1
  Cs  Cs662  1  0.08578083  0.35747567  0.38202067  1
  Cs  Cs663  1  0.08578083  0.35747567  0.54868733  1
  Cs  Cs664  1  0.08578083  0.35747567  0.71535400  1
  Cs  Cs665  1  0.08578083  0.35747567  0.88202067  1
  Cs  Cs666  1  0.08578083  0.52414233  0.04868733  1
  Cs  Cs667  1  0.08578083  0.52414233  0.21535400  1
  Cs  Cs668  1  0.08578083  0.52414233  0.38202067  1
  Cs  Cs669  1  0.08578083  0.52414233  0.54868733  1
  Cs  Cs670  1  0.08578083  0.52414233  0.71535400  1
  Cs  Cs671  1  0.08578083  0.52414233  0.88202067  1
  Cs  Cs672  1  0.08578083  0.69080900  0.04868733  1
  Cs  Cs673  1  0.08578083  0.69080900  0.21535400  1
  Cs  Cs674  1  0.08578083  0.69080900  0.38202067  1
  Cs  Cs675  1  0.08578083  0.69080900  0.54868733  1
  Cs  Cs676  1  0.08578083  0.69080900  0.71535400  1
  Cs  Cs677  1  0.08578083  0.69080900  0.88202067  1
  Cs  Cs678  1  0.08578083  0.85747567  0.04868733  1
  Cs  Cs679  1  0.08578083  0.85747567  0.21535400  1
  Cs  Cs680  1  0.08578083  0.85747567  0.38202067  1
  Cs  Cs681  1  0.08578083  0.85747567  0.54868733  1
  Cs  Cs682  1  0.08578083  0.85747567  0.71535400  1
  Cs  Cs683  1  0.08578083  0.85747567  0.88202067  1
  Cs  Cs684  1  0.25244750  0.02414233  0.04868733  1
  Cs  Cs685  1  0.25244750  0.02414233  0.21535400  1
  Cs  Cs686  1  0.25244750  0.02414233  0.38202067  1
  Cs  Cs687  1  0.25244750  0.02414233  0.54868733  1
  Cs  Cs688  1  0.25244750  0.02414233  0.71535400  1
  Cs  Cs689  1  0.25244750  0.02414233  0.88202067  1
  Cs  Cs690  1  0.25244750  0.19080900  0.04868733  1
  Cs  Cs691  1  0.25244750  0.19080900  0.21535400  1
  Cs  Cs692  1  0.25244750  0.19080900  0.38202067  1
  Cs  Cs693  1  0.25244750  0.19080900  0.54868733  1
  Cs  Cs694  1  0.25244750  0.19080900  0.71535400  1
  Cs  Cs695  1  0.25244750  0.19080900  0.88202067  1
  Cs  Cs696  1  0.25244750  0.35747567  0.04868733  1
  Cs  Cs697  1  0.25244750  0.35747567  0.21535400  1
  Cs  Cs698  1  0.25244750  0.35747567  0.38202067  1
  Cs  Cs699  1  0.25244750  0.35747567  0.54868733  1
  Cs  Cs700  1  0.25244750  0.35747567  0.71535400  1
  Cs  Cs701  1  0.25244750  0.35747567  0.88202067  1
  Cs  Cs702  1  0.25244750  0.52414233  0.04868733  1
  Cs  Cs703  1  0.25244750  0.52414233  0.21535400  1
  Cs  Cs704  1  0.25244750  0.52414233  0.38202067  1
  Cs  Cs705  1  0.25244750  0.52414233  0.54868733  1
  Cs  Cs706  1  0.25244750  0.52414233  0.71535400  1
  Cs  Cs707  1  0.25244750  0.52414233  0.88202067  1
  Cs  Cs708  1  0.25244750  0.69080900  0.04868733  1
  Cs  Cs709  1  0.25244750  0.69080900  0.21535400  1
  Cs  Cs710  1  0.25244750  0.69080900  0.38202067  1
  Cs  Cs711  1  0.25244750  0.69080900  0.54868733  1
  Cs  Cs712  1  0.25244750  0.69080900  0.71535400  1
  Cs  Cs713  1  0.25244750  0.69080900  0.88202067  1
  Cs  Cs714  1  0.25244750  0.85747567  0.04868733  1
  Cs  Cs715  1  0.25244750  0.85747567  0.21535400  1
  Cs  Cs716  1  0.25244750  0.85747567  0.38202067  1
  Cs  Cs717  1  0.25244750  0.85747567  0.54868733  1
  Cs  Cs718  1  0.25244750  0.85747567  0.71535400  1
  Cs  Cs719  1  0.25244750  0.85747567  0.88202067  1
  Cs  Cs720  1  0.41911417  0.02414233  0.04868733  1
  Cs  Cs721  1  0.41911417  0.02414233  0.21535400  1
  Cs  Cs722  1  0.41911417  0.02414233  0.38202067  1
  Cs  Cs723  1  0.41911417  0.02414233  0.54868733  1
  Cs  Cs724  1  0.41911417  0.02414233  0.71535400  1
  Cs  Cs725  1  0.41911417  0.02414233  0.88202067  1
  Cs  Cs726  1  0.41911417  0.19080900  0.04868733  1
  Cs  Cs727  1  0.41911417  0.19080900  0.21535400  1
  Cs  Cs728  1  0.41911417  0.19080900  0.38202067  1
  Cs  Cs729  1  0.41911417  0.19080900  0.54868733  1
  Cs  Cs730  1  0.41911417  0.19080900  0.71535400  1
  Cs  Cs731  1  0.41911417  0.19080900  0.88202067  1
  Cs  Cs732  1  0.41911417  0.35747567  0.04868733  1
  Cs  Cs733  1  0.41911417  0.35747567  0.21535400  1
  Cs  Cs734  1  0.41911417  0.35747567  0.38202067  1
  Cs  Cs735  1  0.41911417  0.35747567  0.54868733  1
  Cs  Cs736  1  0.41911417  0.35747567  0.71535400  1
  Cs  Cs737  1  0.41911417  0.35747567  0.88202067  1
  Cs  Cs738  1  0.41911417  0.52414233  0.04868733  1
  Cs  Cs739  1  0.41911417  0.52414233  0.21535400  1
  Cs  Cs740  1  0.41911417  0.52414233  0.38202067  1
  Cs  Cs741  1  0.41911417  0.52414233  0.54868733  1
  Cs  Cs742  1  0.41911417  0.52414233  0.71535400  1
  Cs  Cs743  1  0.41911417  0.52414233  0.88202067  1
  Cs  Cs744  1  0.41911417  0.69080900  0.04868733  1
  Cs  Cs745  1  0.41911417  0.69080900  0.21535400  1
  Cs  Cs746  1  0.41911417  0.69080900  0.38202067  1
  Cs  Cs747  1  0.41911417  0.69080900  0.54868733  1
  Cs  Cs748  1  0.41911417  0.69080900  0.71535400  1
  Cs  Cs749  1  0.41911417  0.69080900  0.88202067  1
  Cs  Cs750  1  0.41911417  0.85747567  0.04868733  1
  Cs  Cs751  1  0.41911417  0.85747567  0.21535400  1
  Cs  Cs752  1  0.41911417  0.85747567  0.38202067  1
  Cs  Cs753  1  0.41911417  0.85747567  0.54868733  1
  Cs  Cs754  1  0.41911417  0.85747567  0.71535400  1
  Cs  Cs755  1  0.41911417  0.85747567  0.88202067  1
  Cs  Cs756  1  0.58578083  0.02414233  0.04868733  1
  Cs  Cs757  1  0.58578083  0.02414233  0.21535400  1
  Cs  Cs758  1  0.58578083  0.02414233  0.38202067  1
  Cs  Cs759  1  0.58578083  0.02414233  0.54868733  1
  Cs  Cs760  1  0.58578083  0.02414233  0.71535400  1
  Cs  Cs761  1  0.58578083  0.02414233  0.88202067  1
  Cs  Cs762  1  0.58578083  0.19080900  0.04868733  1
  Cs  Cs763  1  0.58578083  0.19080900  0.21535400  1
  Cs  Cs764  1  0.58578083  0.19080900  0.38202067  1
  Cs  Cs765  1  0.58578083  0.19080900  0.54868733  1
  Cs  Cs766  1  0.58578083  0.19080900  0.71535400  1
  Cs  Cs767  1  0.58578083  0.19080900  0.88202067  1
  Cs  Cs768  1  0.58578083  0.35747567  0.04868733  1
  Cs  Cs769  1  0.58578083  0.35747567  0.21535400  1
  Cs  Cs770  1  0.58578083  0.35747567  0.38202067  1
  Cs  Cs771  1  0.58578083  0.35747567  0.54868733  1
  Cs  Cs772  1  0.58578083  0.35747567  0.71535400  1
  Cs  Cs773  1  0.58578083  0.35747567  0.88202067  1
  Cs  Cs774  1  0.58578083  0.52414233  0.04868733  1
  Cs  Cs775  1  0.58578083  0.52414233  0.21535400  1
  Cs  Cs776  1  0.58578083  0.52414233  0.38202067  1
  Cs  Cs777  1  0.58578083  0.52414233  0.54868733  1
  Cs  Cs778  1  0.58578083  0.52414233  0.71535400  1
  Cs  Cs779  1  0.58578083  0.52414233  0.88202067  1
  Cs  Cs780  1  0.58578083  0.69080900  0.04868733  1
  Cs  Cs781  1  0.58578083  0.69080900  0.21535400  1
  Cs  Cs782  1  0.58578083  0.69080900  0.38202067  1
  Cs  Cs783  1  0.58578083  0.69080900  0.54868733  1
  Cs  Cs784  1  0.58578083  0.69080900  0.71535400  1
  Cs  Cs785  1  0.58578083  0.69080900  0.88202067  1
  Cs  Cs786  1  0.58578083  0.85747567  0.04868733  1
  Cs  Cs787  1  0.58578083  0.85747567  0.21535400  1
  Cs  Cs788  1  0.58578083  0.85747567  0.38202067  1
  Cs  Cs789  1  0.58578083  0.85747567  0.54868733  1
  Cs  Cs790  1  0.58578083  0.85747567  0.71535400  1
  Cs  Cs791  1  0.58578083  0.85747567  0.88202067  1
  Cs  Cs792  1  0.75244750  0.02414233  0.04868733  1
  Cs  Cs793  1  0.75244750  0.02414233  0.21535400  1
  Cs  Cs794  1  0.75244750  0.02414233  0.38202067  1
  Cs  Cs795  1  0.75244750  0.02414233  0.54868733  1
  Cs  Cs796  1  0.75244750  0.02414233  0.71535400  1
  Cs  Cs797  1  0.75244750  0.02414233  0.88202067  1
  Cs  Cs798  1  0.75244750  0.19080900  0.04868733  1
  Cs  Cs799  1  0.75244750  0.19080900  0.21535400  1
  Cs  Cs800  1  0.75244750  0.19080900  0.38202067  1
  Cs  Cs801  1  0.75244750  0.19080900  0.54868733  1
  Cs  Cs802  1  0.75244750  0.19080900  0.71535400  1
  Cs  Cs803  1  0.75244750  0.19080900  0.88202067  1
  Cs  Cs804  1  0.75244750  0.35747567  0.04868733  1
  Cs  Cs805  1  0.75244750  0.35747567  0.21535400  1
  Cs  Cs806  1  0.75244750  0.35747567  0.38202067  1
  Cs  Cs807  1  0.75244750  0.35747567  0.54868733  1
  Cs  Cs808  1  0.75244750  0.35747567  0.71535400  1
  Cs  Cs809  1  0.75244750  0.35747567  0.88202067  1
  Cs  Cs810  1  0.75244750  0.52414233  0.04868733  1
  Cs  Cs811  1  0.75244750  0.52414233  0.21535400  1
  Cs  Cs812  1  0.75244750  0.52414233  0.38202067  1
  Cs  Cs813  1  0.75244750  0.52414233  0.54868733  1
  Cs  Cs814  1  0.75244750  0.52414233  0.71535400  1
  Cs  Cs815  1  0.75244750  0.52414233  0.88202067  1
  Cs  Cs816  1  0.75244750  0.69080900  0.04868733  1
  Cs  Cs817  1  0.75244750  0.69080900  0.21535400  1
  Cs  Cs818  1  0.75244750  0.69080900  0.38202067  1
  Cs  Cs819  1  0.75244750  0.69080900  0.54868733  1
  Cs  Cs820  1  0.75244750  0.69080900  0.71535400  1
  Cs  Cs821  1  0.75244750  0.69080900  0.88202067  1
  Cs  Cs822  1  0.75244750  0.85747567  0.04868733  1
  Cs  Cs823  1  0.75244750  0.85747567  0.21535400  1
  Cs  Cs824  1  0.75244750  0.85747567  0.38202067  1
  Cs  Cs825  1  0.75244750  0.85747567  0.54868733  1
  Cs  Cs826  1  0.75244750  0.85747567  0.71535400  1
  Cs  Cs827  1  0.75244750  0.85747567  0.88202067  1
  Cs  Cs828  1  0.91911417  0.02414233  0.04868733  1
  Cs  Cs829  1  0.91911417  0.02414233  0.21535400  1
  Cs  Cs830  1  0.91911417  0.02414233  0.38202067  1
  Cs  Cs831  1  0.91911417  0.02414233  0.54868733  1
  Cs  Cs832  1  0.91911417  0.02414233  0.71535400  1
  Cs  Cs833  1  0.91911417  0.02414233  0.88202067  1
  Cs  Cs834  1  0.91911417  0.19080900  0.04868733  1
  Cs  Cs835  1  0.91911417  0.19080900  0.21535400  1
  Cs  Cs836  1  0.91911417  0.19080900  0.38202067  1
  Cs  Cs837  1  0.91911417  0.19080900  0.54868733  1
  Cs  Cs838  1  0.91911417  0.19080900  0.71535400  1
  Cs  Cs839  1  0.91911417  0.19080900  0.88202067  1
  Cs  Cs840  1  0.91911417  0.35747567  0.04868733  1
  Cs  Cs841  1  0.91911417  0.35747567  0.21535400  1
  Cs  Cs842  1  0.91911417  0.35747567  0.38202067  1
  Cs  Cs843  1  0.91911417  0.35747567  0.54868733  1
  Cs  Cs844  1  0.91911417  0.35747567  0.71535400  1
  Cs  Cs845  1  0.91911417  0.35747567  0.88202067  1
  Cs  Cs846  1  0.91911417  0.52414233  0.04868733  1
  Cs  Cs847  1  0.91911417  0.52414233  0.21535400  1
  Cs  Cs848  1  0.91911417  0.52414233  0.38202067  1
  Cs  Cs849  1  0.91911417  0.52414233  0.54868733  1
  Cs  Cs850  1  0.91911417  0.52414233  0.71535400  1
  Cs  Cs851  1  0.91911417  0.52414233  0.88202067  1
  Cs  Cs852  1  0.91911417  0.69080900  0.04868733  1
  Cs  Cs853  1  0.91911417  0.69080900  0.21535400  1
  Cs  Cs854  1  0.91911417  0.69080900  0.38202067  1
  Cs  Cs855  1  0.91911417  0.69080900  0.54868733  1
  Cs  Cs856  1  0.91911417  0.69080900  0.71535400  1
  Cs  Cs857  1  0.91911417  0.69080900  0.88202067  1
  Cs  Cs858  1  0.91911417  0.85747567  0.04868733  1
  Cs  Cs859  1  0.91911417  0.85747567  0.21535400  1
  Cs  Cs860  1  0.91911417  0.85747567  0.38202067  1
  Cs  Cs861  1  0.91911417  0.85747567  0.54868733  1
  Cs  Cs862  1  0.91911417  0.85747567  0.71535400  1
  Cs  Cs863  1  0.91911417  0.85747567  0.88202067  1
  Li  Li864  1  0.01113350  0.13553617  0.09327950  1
  Li  Li865  1  0.01113350  0.13553617  0.25994617  1
  Li  Li866  1  0.01113350  0.13553617  0.42661283  1
  Li  Li867  1  0.01113350  0.13553617  0.59327950  1
  Li  Li868  1  0.01113350  0.13553617  0.75994617  1
  Li  Li869  1  0.01113350  0.13553617  0.92661283  1
  Li  Li870  1  0.01113350  0.30220283  0.09327950  1
  Li  Li871  1  0.01113350  0.30220283  0.25994617  1
  Li  Li872  1  0.01113350  0.30220283  0.42661283  1
  Li  Li873  1  0.01113350  0.30220283  0.59327950  1
  Li  Li874  1  0.01113350  0.30220283  0.75994617  1
  Li  Li875  1  0.01113350  0.30220283  0.92661283  1
  Li  Li876  1  0.01113350  0.46886950  0.09327950  1
  Li  Li877  1  0.01113350  0.46886950  0.25994617  1
  Li  Li878  1  0.01113350  0.46886950  0.42661283  1
  Li  Li879  1  0.01113350  0.46886950  0.59327950  1
  Li  Li880  1  0.01113350  0.46886950  0.75994617  1
  Li  Li881  1  0.01113350  0.46886950  0.92661283  1
  Li  Li882  1  0.01113350  0.63553617  0.09327950  1
  Li  Li883  1  0.01113350  0.63553617  0.25994617  1
  Li  Li884  1  0.01113350  0.63553617  0.42661283  1
  Li  Li885  1  0.01113350  0.63553617  0.59327950  1
  Li  Li886  1  0.01113350  0.63553617  0.75994617  1
  Li  Li887  1  0.01113350  0.63553617  0.92661283  1
  Li  Li888  1  0.01113350  0.80220283  0.09327950  1
  Li  Li889  1  0.01113350  0.80220283  0.25994617  1
  Li  Li890  1  0.01113350  0.80220283  0.42661283  1
  Li  Li891  1  0.01113350  0.80220283  0.59327950  1
  Li  Li892  1  0.01113350  0.80220283  0.75994617  1
  Li  Li893  1  0.01113350  0.80220283  0.92661283  1
  Li  Li894  1  0.01113350  0.96886950  0.09327950  1
  Li  Li895  1  0.01113350  0.96886950  0.25994617  1
  Li  Li896  1  0.01113350  0.96886950  0.42661283  1
  Li  Li897  1  0.01113350  0.96886950  0.59327950  1
  Li  Li898  1  0.01113350  0.96886950  0.75994617  1
  Li  Li899  1  0.01113350  0.96886950  0.92661283  1
  Li  Li900  1  0.17780017  0.13553617  0.09327950  1
  Li  Li901  1  0.17780017  0.13553617  0.25994617  1
  Li  Li902  1  0.17780017  0.13553617  0.42661283  1
  Li  Li903  1  0.17780017  0.13553617  0.59327950  1
  Li  Li904  1  0.17780017  0.13553617  0.75994617  1
  Li  Li905  1  0.17780017  0.13553617  0.92661283  1
  Li  Li906  1  0.17780017  0.30220283  0.09327950  1
  Li  Li907  1  0.17780017  0.30220283  0.25994617  1
  Li  Li908  1  0.17780017  0.30220283  0.42661283  1
  Li  Li909  1  0.17780017  0.30220283  0.59327950  1
  Li  Li910  1  0.17780017  0.30220283  0.75994617  1
  Li  Li911  1  0.17780017  0.30220283  0.92661283  1
  Li  Li912  1  0.17780017  0.46886950  0.09327950  1
  Li  Li913  1  0.17780017  0.46886950  0.25994617  1
  Li  Li914  1  0.17780017  0.46886950  0.42661283  1
  Li  Li915  1  0.17780017  0.46886950  0.59327950  1
  Li  Li916  1  0.17780017  0.46886950  0.75994617  1
  Li  Li917  1  0.17780017  0.46886950  0.92661283  1
  Li  Li918  1  0.17780017  0.63553617  0.09327950  1
  Li  Li919  1  0.17780017  0.63553617  0.25994617  1
  Li  Li920  1  0.17780017  0.63553617  0.42661283  1
  Li  Li921  1  0.17780017  0.63553617  0.59327950  1
  Li  Li922  1  0.17780017  0.63553617  0.75994617  1
  Li  Li923  1  0.17780017  0.63553617  0.92661283  1
  Li  Li924  1  0.17780017  0.80220283  0.09327950  1
  Li  Li925  1  0.17780017  0.80220283  0.25994617  1
  Li  Li926  1  0.17780017  0.80220283  0.42661283  1
  Li  Li927  1  0.17780017  0.80220283  0.59327950  1
  Li  Li928  1  0.17780017  0.80220283  0.75994617  1
  Li  Li929  1  0.17780017  0.80220283  0.92661283  1
  Li  Li930  1  0.17780017  0.96886950  0.09327950  1
  Li  Li931  1  0.17780017  0.96886950  0.25994617  1
  Li  Li932  1  0.17780017  0.96886950  0.42661283  1
  Li  Li933  1  0.17780017  0.96886950  0.59327950  1
  Li  Li934  1  0.17780017  0.96886950  0.75994617  1
  Li  Li935  1  0.17780017  0.96886950  0.92661283  1
  Li  Li936  1  0.34446683  0.13553617  0.09327950  1
  Li  Li937  1  0.34446683  0.13553617  0.25994617  1
  Li  Li938  1  0.34446683  0.13553617  0.42661283  1
  Li  Li939  1  0.34446683  0.13553617  0.59327950  1
  Li  Li940  1  0.34446683  0.13553617  0.75994617  1
  Li  Li941  1  0.34446683  0.13553617  0.92661283  1
  Li  Li942  1  0.34446683  0.30220283  0.09327950  1
  Li  Li943  1  0.34446683  0.30220283  0.25994617  1
  Li  Li944  1  0.34446683  0.30220283  0.42661283  1
  Li  Li945  1  0.34446683  0.30220283  0.59327950  1
  Li  Li946  1  0.34446683  0.30220283  0.75994617  1
  Li  Li947  1  0.34446683  0.30220283  0.92661283  1
  Li  Li948  1  0.34446683  0.46886950  0.09327950  1
  Li  Li949  1  0.34446683  0.46886950  0.25994617  1
  Li  Li950  1  0.34446683  0.46886950  0.42661283  1
  Li  Li951  1  0.34446683  0.46886950  0.59327950  1
  Li  Li952  1  0.34446683  0.46886950  0.75994617  1
  Li  Li953  1  0.34446683  0.46886950  0.92661283  1
  Li  Li954  1  0.34446683  0.63553617  0.09327950  1
  Li  Li955  1  0.34446683  0.63553617  0.25994617  1
  Li  Li956  1  0.34446683  0.63553617  0.42661283  1
  Li  Li957  1  0.34446683  0.63553617  0.59327950  1
  Li  Li958  1  0.34446683  0.63553617  0.75994617  1
  Li  Li959  1  0.34446683  0.63553617  0.92661283  1
  Li  Li960  1  0.34446683  0.80220283  0.09327950  1
  Li  Li961  1  0.34446683  0.80220283  0.25994617  1
  Li  Li962  1  0.34446683  0.80220283  0.42661283  1
  Li  Li963  1  0.34446683  0.80220283  0.59327950  1
  Li  Li964  1  0.34446683  0.80220283  0.75994617  1
  Li  Li965  1  0.34446683  0.80220283  0.92661283  1
  Li  Li966  1  0.34446683  0.96886950  0.09327950  1
  Li  Li967  1  0.34446683  0.96886950  0.25994617  1
  Li  Li968  1  0.34446683  0.96886950  0.42661283  1
  Li  Li969  1  0.34446683  0.96886950  0.59327950  1
  Li  Li970  1  0.34446683  0.96886950  0.75994617  1
  Li  Li971  1  0.34446683  0.96886950  0.92661283  1
  Li  Li972  1  0.51113350  0.13553617  0.09327950  1
  Li  Li973  1  0.51113350  0.13553617  0.25994617  1
  Li  Li974  1  0.51113350  0.13553617  0.42661283  1
  Li  Li975  1  0.51113350  0.13553617  0.59327950  1
  Li  Li976  1  0.51113350  0.13553617  0.75994617  1
  Li  Li977  1  0.51113350  0.13553617  0.92661283  1
  Li  Li978  1  0.51113350  0.30220283  0.09327950  1
  Li  Li979  1  0.51113350  0.30220283  0.25994617  1
  Li  Li980  1  0.51113350  0.30220283  0.42661283  1
  Li  Li981  1  0.51113350  0.30220283  0.59327950  1
  Li  Li982  1  0.51113350  0.30220283  0.75994617  1
  Li  Li983  1  0.51113350  0.30220283  0.92661283  1
  Li  Li984  1  0.51113350  0.46886950  0.09327950  1
  Li  Li985  1  0.51113350  0.46886950  0.25994617  1
  Li  Li986  1  0.51113350  0.46886950  0.42661283  1
  Li  Li987  1  0.51113350  0.46886950  0.59327950  1
  Li  Li988  1  0.51113350  0.46886950  0.75994617  1
  Li  Li989  1  0.51113350  0.46886950  0.92661283  1
  Li  Li990  1  0.51113350  0.63553617  0.09327950  1
  Li  Li991  1  0.51113350  0.63553617  0.25994617  1
  Li  Li992  1  0.51113350  0.63553617  0.42661283  1
  Li  Li993  1  0.51113350  0.63553617  0.59327950  1
  Li  Li994  1  0.51113350  0.63553617  0.75994617  1
  Li  Li995  1  0.51113350  0.63553617  0.92661283  1
  Li  Li996  1  0.51113350  0.80220283  0.09327950  1
  Li  Li997  1  0.51113350  0.80220283  0.25994617  1
  Li  Li998  1  0.51113350  0.80220283  0.42661283  1
  Li  Li999  1  0.51113350  0.80220283  0.59327950  1
  Li  Li1000  1  0.51113350  0.80220283  0.75994617  1
  Li  Li1001  1  0.51113350  0.80220283  0.92661283  1
  Li  Li1002  1  0.51113350  0.96886950  0.09327950  1
  Li  Li1003  1  0.51113350  0.96886950  0.25994617  1
  Li  Li1004  1  0.51113350  0.96886950  0.42661283  1
  Li  Li1005  1  0.51113350  0.96886950  0.59327950  1
  Li  Li1006  1  0.51113350  0.96886950  0.75994617  1
  Li  Li1007  1  0.51113350  0.96886950  0.92661283  1
  Li  Li1008  1  0.67780017  0.13553617  0.09327950  1
  Li  Li1009  1  0.67780017  0.13553617  0.25994617  1
  Li  Li1010  1  0.67780017  0.13553617  0.42661283  1
  Li  Li1011  1  0.67780017  0.13553617  0.59327950  1
  Li  Li1012  1  0.67780017  0.13553617  0.75994617  1
  Li  Li1013  1  0.67780017  0.13553617  0.92661283  1
  Li  Li1014  1  0.67780017  0.30220283  0.09327950  1
  Li  Li1015  1  0.67780017  0.30220283  0.25994617  1
  Li  Li1016  1  0.67780017  0.30220283  0.42661283  1
  Li  Li1017  1  0.67780017  0.30220283  0.59327950  1
  Li  Li1018  1  0.67780017  0.30220283  0.75994617  1
  Li  Li1019  1  0.67780017  0.30220283  0.92661283  1
  Li  Li1020  1  0.67780017  0.46886950  0.09327950  1
  Li  Li1021  1  0.67780017  0.46886950  0.25994617  1
  Li  Li1022  1  0.67780017  0.46886950  0.42661283  1
  Li  Li1023  1  0.67780017  0.46886950  0.59327950  1
  Li  Li1024  1  0.67780017  0.46886950  0.75994617  1
  Li  Li1025  1  0.67780017  0.46886950  0.92661283  1
  Li  Li1026  1  0.67780017  0.63553617  0.09327950  1
  Li  Li1027  1  0.67780017  0.63553617  0.25994617  1
  Li  Li1028  1  0.67780017  0.63553617  0.42661283  1
  Li  Li1029  1  0.67780017  0.63553617  0.59327950  1
  Li  Li1030  1  0.67780017  0.63553617  0.75994617  1
  Li  Li1031  1  0.67780017  0.63553617  0.92661283  1
  Li  Li1032  1  0.67780017  0.80220283  0.09327950  1
  Li  Li1033  1  0.67780017  0.80220283  0.25994617  1
  Li  Li1034  1  0.67780017  0.80220283  0.42661283  1
  Li  Li1035  1  0.67780017  0.80220283  0.59327950  1
  Li  Li1036  1  0.67780017  0.80220283  0.75994617  1
  Li  Li1037  1  0.67780017  0.80220283  0.92661283  1
  Li  Li1038  1  0.67780017  0.96886950  0.09327950  1
  Li  Li1039  1  0.67780017  0.96886950  0.25994617  1
  Li  Li1040  1  0.67780017  0.96886950  0.42661283  1
  Li  Li1041  1  0.67780017  0.96886950  0.59327950  1
  Li  Li1042  1  0.67780017  0.96886950  0.75994617  1
  Li  Li1043  1  0.67780017  0.96886950  0.92661283  1
  Li  Li1044  1  0.84446683  0.13553617  0.09327950  1
  Li  Li1045  1  0.84446683  0.13553617  0.25994617  1
  Li  Li1046  1  0.84446683  0.13553617  0.42661283  1
  Li  Li1047  1  0.84446683  0.13553617  0.59327950  1
  Li  Li1048  1  0.84446683  0.13553617  0.75994617  1
  Li  Li1049  1  0.84446683  0.13553617  0.92661283  1
  Li  Li1050  1  0.84446683  0.30220283  0.09327950  1
  Li  Li1051  1  0.84446683  0.30220283  0.25994617  1
  Li  Li1052  1  0.84446683  0.30220283  0.42661283  1
  Li  Li1053  1  0.84446683  0.30220283  0.59327950  1
  Li  Li1054  1  0.84446683  0.30220283  0.75994617  1
  Li  Li1055  1  0.84446683  0.30220283  0.92661283  1
  Li  Li1056  1  0.84446683  0.46886950  0.09327950  1
  Li  Li1057  1  0.84446683  0.46886950  0.25994617  1
  Li  Li1058  1  0.84446683  0.46886950  0.42661283  1
  Li  Li1059  1  0.84446683  0.46886950  0.59327950  1
  Li  Li1060  1  0.84446683  0.46886950  0.75994617  1
  Li  Li1061  1  0.84446683  0.46886950  0.92661283  1
  Li  Li1062  1  0.84446683  0.63553617  0.09327950  1
  Li  Li1063  1  0.84446683  0.63553617  0.25994617  1
  Li  Li1064  1  0.84446683  0.63553617  0.42661283  1
  Li  Li1065  1  0.84446683  0.63553617  0.59327950  1
  Li  Li1066  1  0.84446683  0.63553617  0.75994617  1
  Li  Li1067  1  0.84446683  0.63553617  0.92661283  1
  Li  Li1068  1  0.84446683  0.80220283  0.09327950  1
  Li  Li1069  1  0.84446683  0.80220283  0.25994617  1
  Li  Li1070  1  0.84446683  0.80220283  0.42661283  1
  Li  Li1071  1  0.84446683  0.80220283  0.59327950  1
  Li  Li1072  1  0.84446683  0.80220283  0.75994617  1
  Li  Li1073  1  0.84446683  0.80220283  0.92661283  1
  Li  Li1074  1  0.84446683  0.96886950  0.09327950  1
  Li  Li1075  1  0.84446683  0.96886950  0.25994617  1
  Li  Li1076  1  0.84446683  0.96886950  0.42661283  1
  Li  Li1077  1  0.84446683  0.96886950  0.59327950  1
  Li  Li1078  1  0.84446683  0.96886950  0.75994617  1
  Li  Li1079  1  0.84446683  0.96886950  0.92661283  1
  Li  Li1080  1  0.15553317  0.03113050  0.07338717  1
  Li  Li1081  1  0.15553317  0.03113050  0.24005383  1
  Li  Li1082  1  0.15553317  0.03113050  0.40672050  1
  Li  Li1083  1  0.15553317  0.03113050  0.57338717  1
  Li  Li1084  1  0.15553317  0.03113050  0.74005383  1
  Li  Li1085  1  0.15553317  0.03113050  0.90672050  1
  Li  Li1086  1  0.15553317  0.19779717  0.07338717  1
  Li  Li1087  1  0.15553317  0.19779717  0.24005383  1
  Li  Li1088  1  0.15553317  0.19779717  0.40672050  1
  Li  Li1089  1  0.15553317  0.19779717  0.57338717  1
  Li  Li1090  1  0.15553317  0.19779717  0.74005383  1
  Li  Li1091  1  0.15553317  0.19779717  0.90672050  1
  Li  Li1092  1  0.15553317  0.36446383  0.07338717  1
  Li  Li1093  1  0.15553317  0.36446383  0.24005383  1
  Li  Li1094  1  0.15553317  0.36446383  0.40672050  1
  Li  Li1095  1  0.15553317  0.36446383  0.57338717  1
  Li  Li1096  1  0.15553317  0.36446383  0.74005383  1
  Li  Li1097  1  0.15553317  0.36446383  0.90672050  1
  Li  Li1098  1  0.15553317  0.53113050  0.07338717  1
  Li  Li1099  1  0.15553317  0.53113050  0.24005383  1
  Li  Li1100  1  0.15553317  0.53113050  0.40672050  1
  Li  Li1101  1  0.15553317  0.53113050  0.57338717  1
  Li  Li1102  1  0.15553317  0.53113050  0.74005383  1
  Li  Li1103  1  0.15553317  0.53113050  0.90672050  1
  Li  Li1104  1  0.15553317  0.69779717  0.07338717  1
  Li  Li1105  1  0.15553317  0.69779717  0.24005383  1
  Li  Li1106  1  0.15553317  0.69779717  0.40672050  1
  Li  Li1107  1  0.15553317  0.69779717  0.57338717  1
  Li  Li1108  1  0.15553317  0.69779717  0.74005383  1
  Li  Li1109  1  0.15553317  0.69779717  0.90672050  1
  Li  Li1110  1  0.15553317  0.86446383  0.07338717  1
  Li  Li1111  1  0.15553317  0.86446383  0.24005383  1
  Li  Li1112  1  0.15553317  0.86446383  0.40672050  1
  Li  Li1113  1  0.15553317  0.86446383  0.57338717  1
  Li  Li1114  1  0.15553317  0.86446383  0.74005383  1
  Li  Li1115  1  0.15553317  0.86446383  0.90672050  1
  Li  Li1116  1  0.32219983  0.03113050  0.07338717  1
  Li  Li1117  1  0.32219983  0.03113050  0.24005383  1
  Li  Li1118  1  0.32219983  0.03113050  0.40672050  1
  Li  Li1119  1  0.32219983  0.03113050  0.57338717  1
  Li  Li1120  1  0.32219983  0.03113050  0.74005383  1
  Li  Li1121  1  0.32219983  0.03113050  0.90672050  1
  Li  Li1122  1  0.32219983  0.19779717  0.07338717  1
  Li  Li1123  1  0.32219983  0.19779717  0.24005383  1
  Li  Li1124  1  0.32219983  0.19779717  0.40672050  1
  Li  Li1125  1  0.32219983  0.19779717  0.57338717  1
  Li  Li1126  1  0.32219983  0.19779717  0.74005383  1
  Li  Li1127  1  0.32219983  0.19779717  0.90672050  1
  Li  Li1128  1  0.32219983  0.36446383  0.07338717  1
  Li  Li1129  1  0.32219983  0.36446383  0.24005383  1
  Li  Li1130  1  0.32219983  0.36446383  0.40672050  1
  Li  Li1131  1  0.32219983  0.36446383  0.57338717  1
  Li  Li1132  1  0.32219983  0.36446383  0.74005383  1
  Li  Li1133  1  0.32219983  0.36446383  0.90672050  1
  Li  Li1134  1  0.32219983  0.53113050  0.07338717  1
  Li  Li1135  1  0.32219983  0.53113050  0.24005383  1
  Li  Li1136  1  0.32219983  0.53113050  0.40672050  1
  Li  Li1137  1  0.32219983  0.53113050  0.57338717  1
  Li  Li1138  1  0.32219983  0.53113050  0.74005383  1
  Li  Li1139  1  0.32219983  0.53113050  0.90672050  1
  Li  Li1140  1  0.32219983  0.69779717  0.07338717  1
  Li  Li1141  1  0.32219983  0.69779717  0.24005383  1
  Li  Li1142  1  0.32219983  0.69779717  0.40672050  1
  Li  Li1143  1  0.32219983  0.69779717  0.57338717  1
  Li  Li1144  1  0.32219983  0.69779717  0.74005383  1
  Li  Li1145  1  0.32219983  0.69779717  0.90672050  1
  Li  Li1146  1  0.32219983  0.86446383  0.07338717  1
  Li  Li1147  1  0.32219983  0.86446383  0.24005383  1
  Li  Li1148  1  0.32219983  0.86446383  0.40672050  1
  Li  Li1149  1  0.32219983  0.86446383  0.57338717  1
  Li  Li1150  1  0.32219983  0.86446383  0.74005383  1
  Li  Li1151  1  0.32219983  0.86446383  0.90672050  1
  Li  Li1152  1  0.48886650  0.03113050  0.07338717  1
  Li  Li1153  1  0.48886650  0.03113050  0.24005383  1
  Li  Li1154  1  0.48886650  0.03113050  0.40672050  1
  Li  Li1155  1  0.48886650  0.03113050  0.57338717  1
  Li  Li1156  1  0.48886650  0.03113050  0.74005383  1
  Li  Li1157  1  0.48886650  0.03113050  0.90672050  1
  Li  Li1158  1  0.48886650  0.19779717  0.07338717  1
  Li  Li1159  1  0.48886650  0.19779717  0.24005383  1
  Li  Li1160  1  0.48886650  0.19779717  0.40672050  1
  Li  Li1161  1  0.48886650  0.19779717  0.57338717  1
  Li  Li1162  1  0.48886650  0.19779717  0.74005383  1
  Li  Li1163  1  0.48886650  0.19779717  0.90672050  1
  Li  Li1164  1  0.48886650  0.36446383  0.07338717  1
  Li  Li1165  1  0.48886650  0.36446383  0.24005383  1
  Li  Li1166  1  0.48886650  0.36446383  0.40672050  1
  Li  Li1167  1  0.48886650  0.36446383  0.57338717  1
  Li  Li1168  1  0.48886650  0.36446383  0.74005383  1
  Li  Li1169  1  0.48886650  0.36446383  0.90672050  1
  Li  Li1170  1  0.48886650  0.53113050  0.07338717  1
  Li  Li1171  1  0.48886650  0.53113050  0.24005383  1
  Li  Li1172  1  0.48886650  0.53113050  0.40672050  1
  Li  Li1173  1  0.48886650  0.53113050  0.57338717  1
  Li  Li1174  1  0.48886650  0.53113050  0.74005383  1
  Li  Li1175  1  0.48886650  0.53113050  0.90672050  1
  Li  Li1176  1  0.48886650  0.69779717  0.07338717  1
  Li  Li1177  1  0.48886650  0.69779717  0.24005383  1
  Li  Li1178  1  0.48886650  0.69779717  0.40672050  1
  Li  Li1179  1  0.48886650  0.69779717  0.57338717  1
  Li  Li1180  1  0.48886650  0.69779717  0.74005383  1
  Li  Li1181  1  0.48886650  0.69779717  0.90672050  1
  Li  Li1182  1  0.48886650  0.86446383  0.07338717  1
  Li  Li1183  1  0.48886650  0.86446383  0.24005383  1
  Li  Li1184  1  0.48886650  0.86446383  0.40672050  1
  Li  Li1185  1  0.48886650  0.86446383  0.57338717  1
  Li  Li1186  1  0.48886650  0.86446383  0.74005383  1
  Li  Li1187  1  0.48886650  0.86446383  0.90672050  1
  Li  Li1188  1  0.65553317  0.03113050  0.07338717  1
  Li  Li1189  1  0.65553317  0.03113050  0.24005383  1
  Li  Li1190  1  0.65553317  0.03113050  0.40672050  1
  Li  Li1191  1  0.65553317  0.03113050  0.57338717  1
  Li  Li1192  1  0.65553317  0.03113050  0.74005383  1
  Li  Li1193  1  0.65553317  0.03113050  0.90672050  1
  Li  Li1194  1  0.65553317  0.19779717  0.07338717  1
  Li  Li1195  1  0.65553317  0.19779717  0.24005383  1
  Li  Li1196  1  0.65553317  0.19779717  0.40672050  1
  Li  Li1197  1  0.65553317  0.19779717  0.57338717  1
  Li  Li1198  1  0.65553317  0.19779717  0.74005383  1
  Li  Li1199  1  0.65553317  0.19779717  0.90672050  1
  Li  Li1200  1  0.65553317  0.36446383  0.07338717  1
  Li  Li1201  1  0.65553317  0.36446383  0.24005383  1
  Li  Li1202  1  0.65553317  0.36446383  0.40672050  1
  Li  Li1203  1  0.65553317  0.36446383  0.57338717  1
  Li  Li1204  1  0.65553317  0.36446383  0.74005383  1
  Li  Li1205  1  0.65553317  0.36446383  0.90672050  1
  Li  Li1206  1  0.65553317  0.53113050  0.07338717  1
  Li  Li1207  1  0.65553317  0.53113050  0.24005383  1
  Li  Li1208  1  0.65553317  0.53113050  0.40672050  1
  Li  Li1209  1  0.65553317  0.53113050  0.57338717  1
  Li  Li1210  1  0.65553317  0.53113050  0.74005383  1
  Li  Li1211  1  0.65553317  0.53113050  0.90672050  1
  Li  Li1212  1  0.65553317  0.69779717  0.07338717  1
  Li  Li1213  1  0.65553317  0.69779717  0.24005383  1
  Li  Li1214  1  0.65553317  0.69779717  0.40672050  1
  Li  Li1215  1  0.65553317  0.69779717  0.57338717  1
  Li  Li1216  1  0.65553317  0.69779717  0.74005383  1
  Li  Li1217  1  0.65553317  0.69779717  0.90672050  1
  Li  Li1218  1  0.65553317  0.86446383  0.07338717  1
  Li  Li1219  1  0.65553317  0.86446383  0.24005383  1
  Li  Li1220  1  0.65553317  0.86446383  0.40672050  1
  Li  Li1221  1  0.65553317  0.86446383  0.57338717  1
  Li  Li1222  1  0.65553317  0.86446383  0.74005383  1
  Li  Li1223  1  0.65553317  0.86446383  0.90672050  1
  Li  Li1224  1  0.82219983  0.03113050  0.07338717  1
  Li  Li1225  1  0.82219983  0.03113050  0.24005383  1
  Li  Li1226  1  0.82219983  0.03113050  0.40672050  1
  Li  Li1227  1  0.82219983  0.03113050  0.57338717  1
  Li  Li1228  1  0.82219983  0.03113050  0.74005383  1
  Li  Li1229  1  0.82219983  0.03113050  0.90672050  1
  Li  Li1230  1  0.82219983  0.19779717  0.07338717  1
  Li  Li1231  1  0.82219983  0.19779717  0.24005383  1
  Li  Li1232  1  0.82219983  0.19779717  0.40672050  1
  Li  Li1233  1  0.82219983  0.19779717  0.57338717  1
  Li  Li1234  1  0.82219983  0.19779717  0.74005383  1
  Li  Li1235  1  0.82219983  0.19779717  0.90672050  1
  Li  Li1236  1  0.82219983  0.36446383  0.07338717  1
  Li  Li1237  1  0.82219983  0.36446383  0.24005383  1
  Li  Li1238  1  0.82219983  0.36446383  0.40672050  1
  Li  Li1239  1  0.82219983  0.36446383  0.57338717  1
  Li  Li1240  1  0.82219983  0.36446383  0.74005383  1
  Li  Li1241  1  0.82219983  0.36446383  0.90672050  1
  Li  Li1242  1  0.82219983  0.53113050  0.07338717  1
  Li  Li1243  1  0.82219983  0.53113050  0.24005383  1
  Li  Li1244  1  0.82219983  0.53113050  0.40672050  1
  Li  Li1245  1  0.82219983  0.53113050  0.57338717  1
  Li  Li1246  1  0.82219983  0.53113050  0.74005383  1
  Li  Li1247  1  0.82219983  0.53113050  0.90672050  1
  Li  Li1248  1  0.82219983  0.69779717  0.07338717  1
  Li  Li1249  1  0.82219983  0.69779717  0.24005383  1
  Li  Li1250  1  0.82219983  0.69779717  0.40672050  1
  Li  Li1251  1  0.82219983  0.69779717  0.57338717  1
  Li  Li1252  1  0.82219983  0.69779717  0.74005383  1
  Li  Li1253  1  0.82219983  0.69779717  0.90672050  1
  Li  Li1254  1  0.82219983  0.86446383  0.07338717  1
  Li  Li1255  1  0.82219983  0.86446383  0.24005383  1
  Li  Li1256  1  0.82219983  0.86446383  0.40672050  1
  Li  Li1257  1  0.82219983  0.86446383  0.57338717  1
  Li  Li1258  1  0.82219983  0.86446383  0.74005383  1
  Li  Li1259  1  0.82219983  0.86446383  0.90672050  1
  Li  Li1260  1  0.98886650  0.03113050  0.07338717  1
  Li  Li1261  1  0.98886650  0.03113050  0.24005383  1
  Li  Li1262  1  0.98886650  0.03113050  0.40672050  1
  Li  Li1263  1  0.98886650  0.03113050  0.57338717  1
  Li  Li1264  1  0.98886650  0.03113050  0.74005383  1
  Li  Li1265  1  0.98886650  0.03113050  0.90672050  1
  Li  Li1266  1  0.98886650  0.19779717  0.07338717  1
  Li  Li1267  1  0.98886650  0.19779717  0.24005383  1
  Li  Li1268  1  0.98886650  0.19779717  0.40672050  1
  Li  Li1269  1  0.98886650  0.19779717  0.57338717  1
  Li  Li1270  1  0.98886650  0.19779717  0.74005383  1
  Li  Li1271  1  0.98886650  0.19779717  0.90672050  1
  Li  Li1272  1  0.98886650  0.36446383  0.07338717  1
  Li  Li1273  1  0.98886650  0.36446383  0.24005383  1
  Li  Li1274  1  0.98886650  0.36446383  0.40672050  1
  Li  Li1275  1  0.98886650  0.36446383  0.57338717  1
  Li  Li1276  1  0.98886650  0.36446383  0.74005383  1
  Li  Li1277  1  0.98886650  0.36446383  0.90672050  1
  Li  Li1278  1  0.98886650  0.53113050  0.07338717  1
  Li  Li1279  1  0.98886650  0.53113050  0.24005383  1
  Li  Li1280  1  0.98886650  0.53113050  0.40672050  1
  Li  Li1281  1  0.98886650  0.53113050  0.57338717  1
  Li  Li1282  1  0.98886650  0.53113050  0.74005383  1
  Li  Li1283  1  0.98886650  0.53113050  0.90672050  1
  Li  Li1284  1  0.98886650  0.69779717  0.07338717  1
  Li  Li1285  1  0.98886650  0.69779717  0.24005383  1
  Li  Li1286  1  0.98886650  0.69779717  0.40672050  1
  Li  Li1287  1  0.98886650  0.69779717  0.57338717  1
  Li  Li1288  1  0.98886650  0.69779717  0.74005383  1
  Li  Li1289  1  0.98886650  0.69779717  0.90672050  1
  Li  Li1290  1  0.98886650  0.86446383  0.07338717  1
  Li  Li1291  1  0.98886650  0.86446383  0.24005383  1
  Li  Li1292  1  0.98886650  0.86446383  0.40672050  1
  Li  Li1293  1  0.98886650  0.86446383  0.57338717  1
  Li  Li1294  1  0.98886650  0.86446383  0.74005383  1
  Li  Li1295  1  0.98886650  0.86446383  0.90672050  1
  Li  Li1296  1  0.11568700  0.09786650  0.07006133  1
  Li  Li1297  1  0.11568700  0.09786650  0.23672800  1
  Li  Li1298  1  0.11568700  0.09786650  0.40339467  1
  Li  Li1299  1  0.11568700  0.09786650  0.57006133  1
  Li  Li1300  1  0.11568700  0.09786650  0.73672800  1
  Li  Li1301  1  0.11568700  0.09786650  0.90339467  1
  Li  Li1302  1  0.11568700  0.26453317  0.07006133  1
  Li  Li1303  1  0.11568700  0.26453317  0.23672800  1
  Li  Li1304  1  0.11568700  0.26453317  0.40339467  1
  Li  Li1305  1  0.11568700  0.26453317  0.57006133  1
  Li  Li1306  1  0.11568700  0.26453317  0.73672800  1
  Li  Li1307  1  0.11568700  0.26453317  0.90339467  1
  Li  Li1308  1  0.11568700  0.43119983  0.07006133  1
  Li  Li1309  1  0.11568700  0.43119983  0.23672800  1
  Li  Li1310  1  0.11568700  0.43119983  0.40339467  1
  Li  Li1311  1  0.11568700  0.43119983  0.57006133  1
  Li  Li1312  1  0.11568700  0.43119983  0.73672800  1
  Li  Li1313  1  0.11568700  0.43119983  0.90339467  1
  Li  Li1314  1  0.11568700  0.59786650  0.07006133  1
  Li  Li1315  1  0.11568700  0.59786650  0.23672800  1
  Li  Li1316  1  0.11568700  0.59786650  0.40339467  1
  Li  Li1317  1  0.11568700  0.59786650  0.57006133  1
  Li  Li1318  1  0.11568700  0.59786650  0.73672800  1
  Li  Li1319  1  0.11568700  0.59786650  0.90339467  1
  Li  Li1320  1  0.11568700  0.76453317  0.07006133  1
  Li  Li1321  1  0.11568700  0.76453317  0.23672800  1
  Li  Li1322  1  0.11568700  0.76453317  0.40339467  1
  Li  Li1323  1  0.11568700  0.76453317  0.57006133  1
  Li  Li1324  1  0.11568700  0.76453317  0.73672800  1
  Li  Li1325  1  0.11568700  0.76453317  0.90339467  1
  Li  Li1326  1  0.11568700  0.93119983  0.07006133  1
  Li  Li1327  1  0.11568700  0.93119983  0.23672800  1
  Li  Li1328  1  0.11568700  0.93119983  0.40339467  1
  Li  Li1329  1  0.11568700  0.93119983  0.57006133  1
  Li  Li1330  1  0.11568700  0.93119983  0.73672800  1
  Li  Li1331  1  0.11568700  0.93119983  0.90339467  1
  Li  Li1332  1  0.28235367  0.09786650  0.07006133  1
  Li  Li1333  1  0.28235367  0.09786650  0.23672800  1
  Li  Li1334  1  0.28235367  0.09786650  0.40339467  1
  Li  Li1335  1  0.28235367  0.09786650  0.57006133  1
  Li  Li1336  1  0.28235367  0.09786650  0.73672800  1
  Li  Li1337  1  0.28235367  0.09786650  0.90339467  1
  Li  Li1338  1  0.28235367  0.26453317  0.07006133  1
  Li  Li1339  1  0.28235367  0.26453317  0.23672800  1
  Li  Li1340  1  0.28235367  0.26453317  0.40339467  1
  Li  Li1341  1  0.28235367  0.26453317  0.57006133  1
  Li  Li1342  1  0.28235367  0.26453317  0.73672800  1
  Li  Li1343  1  0.28235367  0.26453317  0.90339467  1
  Li  Li1344  1  0.28235367  0.43119983  0.07006133  1
  Li  Li1345  1  0.28235367  0.43119983  0.23672800  1
  Li  Li1346  1  0.28235367  0.43119983  0.40339467  1
  Li  Li1347  1  0.28235367  0.43119983  0.57006133  1
  Li  Li1348  1  0.28235367  0.43119983  0.73672800  1
  Li  Li1349  1  0.28235367  0.43119983  0.90339467  1
  Li  Li1350  1  0.28235367  0.59786650  0.07006133  1
  Li  Li1351  1  0.28235367  0.59786650  0.23672800  1
  Li  Li1352  1  0.28235367  0.59786650  0.40339467  1
  Li  Li1353  1  0.28235367  0.59786650  0.57006133  1
  Li  Li1354  1  0.28235367  0.59786650  0.73672800  1
  Li  Li1355  1  0.28235367  0.59786650  0.90339467  1
  Li  Li1356  1  0.28235367  0.76453317  0.07006133  1
  Li  Li1357  1  0.28235367  0.76453317  0.23672800  1
  Li  Li1358  1  0.28235367  0.76453317  0.40339467  1
  Li  Li1359  1  0.28235367  0.76453317  0.57006133  1
  Li  Li1360  1  0.28235367  0.76453317  0.73672800  1
  Li  Li1361  1  0.28235367  0.76453317  0.90339467  1
  Li  Li1362  1  0.28235367  0.93119983  0.07006133  1
  Li  Li1363  1  0.28235367  0.93119983  0.23672800  1
  Li  Li1364  1  0.28235367  0.93119983  0.40339467  1
  Li  Li1365  1  0.28235367  0.93119983  0.57006133  1
  Li  Li1366  1  0.28235367  0.93119983  0.73672800  1
  Li  Li1367  1  0.28235367  0.93119983  0.90339467  1
  Li  Li1368  1  0.44902033  0.09786650  0.07006133  1
  Li  Li1369  1  0.44902033  0.09786650  0.23672800  1
  Li  Li1370  1  0.44902033  0.09786650  0.40339467  1
  Li  Li1371  1  0.44902033  0.09786650  0.57006133  1
  Li  Li1372  1  0.44902033  0.09786650  0.73672800  1
  Li  Li1373  1  0.44902033  0.09786650  0.90339467  1
  Li  Li1374  1  0.44902033  0.26453317  0.07006133  1
  Li  Li1375  1  0.44902033  0.26453317  0.23672800  1
  Li  Li1376  1  0.44902033  0.26453317  0.40339467  1
  Li  Li1377  1  0.44902033  0.26453317  0.57006133  1
  Li  Li1378  1  0.44902033  0.26453317  0.73672800  1
  Li  Li1379  1  0.44902033  0.26453317  0.90339467  1
  Li  Li1380  1  0.44902033  0.43119983  0.07006133  1
  Li  Li1381  1  0.44902033  0.43119983  0.23672800  1
  Li  Li1382  1  0.44902033  0.43119983  0.40339467  1
  Li  Li1383  1  0.44902033  0.43119983  0.57006133  1
  Li  Li1384  1  0.44902033  0.43119983  0.73672800  1
  Li  Li1385  1  0.44902033  0.43119983  0.90339467  1
  Li  Li1386  1  0.44902033  0.59786650  0.07006133  1
  Li  Li1387  1  0.44902033  0.59786650  0.23672800  1
  Li  Li1388  1  0.44902033  0.59786650  0.40339467  1
  Li  Li1389  1  0.44902033  0.59786650  0.57006133  1
  Li  Li1390  1  0.44902033  0.59786650  0.73672800  1
  Li  Li1391  1  0.44902033  0.59786650  0.90339467  1
  Li  Li1392  1  0.44902033  0.76453317  0.07006133  1
  Li  Li1393  1  0.44902033  0.76453317  0.23672800  1
  Li  Li1394  1  0.44902033  0.76453317  0.40339467  1
  Li  Li1395  1  0.44902033  0.76453317  0.57006133  1
  Li  Li1396  1  0.44902033  0.76453317  0.73672800  1
  Li  Li1397  1  0.44902033  0.76453317  0.90339467  1
  Li  Li1398  1  0.44902033  0.93119983  0.07006133  1
  Li  Li1399  1  0.44902033  0.93119983  0.23672800  1
  Li  Li1400  1  0.44902033  0.93119983  0.40339467  1
  Li  Li1401  1  0.44902033  0.93119983  0.57006133  1
  Li  Li1402  1  0.44902033  0.93119983  0.73672800  1
  Li  Li1403  1  0.44902033  0.93119983  0.90339467  1
  Li  Li1404  1  0.61568700  0.09786650  0.07006133  1
  Li  Li1405  1  0.61568700  0.09786650  0.23672800  1
  Li  Li1406  1  0.61568700  0.09786650  0.40339467  1
  Li  Li1407  1  0.61568700  0.09786650  0.57006133  1
  Li  Li1408  1  0.61568700  0.09786650  0.73672800  1
  Li  Li1409  1  0.61568700  0.09786650  0.90339467  1
  Li  Li1410  1  0.61568700  0.26453317  0.07006133  1
  Li  Li1411  1  0.61568700  0.26453317  0.23672800  1
  Li  Li1412  1  0.61568700  0.26453317  0.40339467  1
  Li  Li1413  1  0.61568700  0.26453317  0.57006133  1
  Li  Li1414  1  0.61568700  0.26453317  0.73672800  1
  Li  Li1415  1  0.61568700  0.26453317  0.90339467  1
  Li  Li1416  1  0.61568700  0.43119983  0.07006133  1
  Li  Li1417  1  0.61568700  0.43119983  0.23672800  1
  Li  Li1418  1  0.61568700  0.43119983  0.40339467  1
  Li  Li1419  1  0.61568700  0.43119983  0.57006133  1
  Li  Li1420  1  0.61568700  0.43119983  0.73672800  1
  Li  Li1421  1  0.61568700  0.43119983  0.90339467  1
  Li  Li1422  1  0.61568700  0.59786650  0.07006133  1
  Li  Li1423  1  0.61568700  0.59786650  0.23672800  1
  Li  Li1424  1  0.61568700  0.59786650  0.40339467  1
  Li  Li1425  1  0.61568700  0.59786650  0.57006133  1
  Li  Li1426  1  0.61568700  0.59786650  0.73672800  1
  Li  Li1427  1  0.61568700  0.59786650  0.90339467  1
  Li  Li1428  1  0.61568700  0.76453317  0.07006133  1
  Li  Li1429  1  0.61568700  0.76453317  0.23672800  1
  Li  Li1430  1  0.61568700  0.76453317  0.40339467  1
  Li  Li1431  1  0.61568700  0.76453317  0.57006133  1
  Li  Li1432  1  0.61568700  0.76453317  0.73672800  1
  Li  Li1433  1  0.61568700  0.76453317  0.90339467  1
  Li  Li1434  1  0.61568700  0.93119983  0.07006133  1
  Li  Li1435  1  0.61568700  0.93119983  0.23672800  1
  Li  Li1436  1  0.61568700  0.93119983  0.40339467  1
  Li  Li1437  1  0.61568700  0.93119983  0.57006133  1
  Li  Li1438  1  0.61568700  0.93119983  0.73672800  1
  Li  Li1439  1  0.61568700  0.93119983  0.90339467  1
  Li  Li1440  1  0.78235367  0.09786650  0.07006133  1
  Li  Li1441  1  0.78235367  0.09786650  0.23672800  1
  Li  Li1442  1  0.78235367  0.09786650  0.40339467  1
  Li  Li1443  1  0.78235367  0.09786650  0.57006133  1
  Li  Li1444  1  0.78235367  0.09786650  0.73672800  1
  Li  Li1445  1  0.78235367  0.09786650  0.90339467  1
  Li  Li1446  1  0.78235367  0.26453317  0.07006133  1
  Li  Li1447  1  0.78235367  0.26453317  0.23672800  1
  Li  Li1448  1  0.78235367  0.26453317  0.40339467  1
  Li  Li1449  1  0.78235367  0.26453317  0.57006133  1
  Li  Li1450  1  0.78235367  0.26453317  0.73672800  1
  Li  Li1451  1  0.78235367  0.26453317  0.90339467  1
  Li  Li1452  1  0.78235367  0.43119983  0.07006133  1
  Li  Li1453  1  0.78235367  0.43119983  0.23672800  1
  Li  Li1454  1  0.78235367  0.43119983  0.40339467  1
  Li  Li1455  1  0.78235367  0.43119983  0.57006133  1
  Li  Li1456  1  0.78235367  0.43119983  0.73672800  1
  Li  Li1457  1  0.78235367  0.43119983  0.90339467  1
  Li  Li1458  1  0.78235367  0.59786650  0.07006133  1
  Li  Li1459  1  0.78235367  0.59786650  0.23672800  1
  Li  Li1460  1  0.78235367  0.59786650  0.40339467  1
  Li  Li1461  1  0.78235367  0.59786650  0.57006133  1
  Li  Li1462  1  0.78235367  0.59786650  0.73672800  1
  Li  Li1463  1  0.78235367  0.59786650  0.90339467  1
  Li  Li1464  1  0.78235367  0.76453317  0.07006133  1
  Li  Li1465  1  0.78235367  0.76453317  0.23672800  1
  Li  Li1466  1  0.78235367  0.76453317  0.40339467  1
  Li  Li1467  1  0.78235367  0.76453317  0.57006133  1
  Li  Li1468  1  0.78235367  0.76453317  0.73672800  1
  Li  Li1469  1  0.78235367  0.76453317  0.90339467  1
  Li  Li1470  1  0.78235367  0.93119983  0.07006133  1
  Li  Li1471  1  0.78235367  0.93119983  0.23672800  1
  Li  Li1472  1  0.78235367  0.93119983  0.40339467  1
  Li  Li1473  1  0.78235367  0.93119983  0.57006133  1
  Li  Li1474  1  0.78235367  0.93119983  0.73672800  1
  Li  Li1475  1  0.78235367  0.93119983  0.90339467  1
  Li  Li1476  1  0.94902033  0.09786650  0.07006133  1
  Li  Li1477  1  0.94902033  0.09786650  0.23672800  1
  Li  Li1478  1  0.94902033  0.09786650  0.40339467  1
  Li  Li1479  1  0.94902033  0.09786650  0.57006133  1
  Li  Li1480  1  0.94902033  0.09786650  0.73672800  1
  Li  Li1481  1  0.94902033  0.09786650  0.90339467  1
  Li  Li1482  1  0.94902033  0.26453317  0.07006133  1
  Li  Li1483  1  0.94902033  0.26453317  0.23672800  1
  Li  Li1484  1  0.94902033  0.26453317  0.40339467  1
  Li  Li1485  1  0.94902033  0.26453317  0.57006133  1
  Li  Li1486  1  0.94902033  0.26453317  0.73672800  1
  Li  Li1487  1  0.94902033  0.26453317  0.90339467  1
  Li  Li1488  1  0.94902033  0.43119983  0.07006133  1
  Li  Li1489  1  0.94902033  0.43119983  0.23672800  1
  Li  Li1490  1  0.94902033  0.43119983  0.40339467  1
  Li  Li1491  1  0.94902033  0.43119983  0.57006133  1
  Li  Li1492  1  0.94902033  0.43119983  0.73672800  1
  Li  Li1493  1  0.94902033  0.43119983  0.90339467  1
  Li  Li1494  1  0.94902033  0.59786650  0.07006133  1
  Li  Li1495  1  0.94902033  0.59786650  0.23672800  1
  Li  Li1496  1  0.94902033  0.59786650  0.40339467  1
  Li  Li1497  1  0.94902033  0.59786650  0.57006133  1
  Li  Li1498  1  0.94902033  0.59786650  0.73672800  1
  Li  Li1499  1  0.94902033  0.59786650  0.90339467  1
  Li  Li1500  1  0.94902033  0.76453317  0.07006133  1
  Li  Li1501  1  0.94902033  0.76453317  0.23672800  1
  Li  Li1502  1  0.94902033  0.76453317  0.40339467  1
  Li  Li1503  1  0.94902033  0.76453317  0.57006133  1
  Li  Li1504  1  0.94902033  0.76453317  0.73672800  1
  Li  Li1505  1  0.94902033  0.76453317  0.90339467  1
  Li  Li1506  1  0.94902033  0.93119983  0.07006133  1
  Li  Li1507  1  0.94902033  0.93119983  0.23672800  1
  Li  Li1508  1  0.94902033  0.93119983  0.40339467  1
  Li  Li1509  1  0.94902033  0.93119983  0.57006133  1
  Li  Li1510  1  0.94902033  0.93119983  0.73672800  1
  Li  Li1511  1  0.94902033  0.93119983  0.90339467  1
  Li  Li1512  1  0.05097967  0.06880017  0.09660533  1
  Li  Li1513  1  0.05097967  0.06880017  0.26327200  1
  Li  Li1514  1  0.05097967  0.06880017  0.42993867  1
  Li  Li1515  1  0.05097967  0.06880017  0.59660533  1
  Li  Li1516  1  0.05097967  0.06880017  0.76327200  1
  Li  Li1517  1  0.05097967  0.06880017  0.92993867  1
  Li  Li1518  1  0.05097967  0.23546683  0.09660533  1
  Li  Li1519  1  0.05097967  0.23546683  0.26327200  1
  Li  Li1520  1  0.05097967  0.23546683  0.42993867  1
  Li  Li1521  1  0.05097967  0.23546683  0.59660533  1
  Li  Li1522  1  0.05097967  0.23546683  0.76327200  1
  Li  Li1523  1  0.05097967  0.23546683  0.92993867  1
  Li  Li1524  1  0.05097967  0.40213350  0.09660533  1
  Li  Li1525  1  0.05097967  0.40213350  0.26327200  1
  Li  Li1526  1  0.05097967  0.40213350  0.42993867  1
  Li  Li1527  1  0.05097967  0.40213350  0.59660533  1
  Li  Li1528  1  0.05097967  0.40213350  0.76327200  1
  Li  Li1529  1  0.05097967  0.40213350  0.92993867  1
  Li  Li1530  1  0.05097967  0.56880017  0.09660533  1
  Li  Li1531  1  0.05097967  0.56880017  0.26327200  1
  Li  Li1532  1  0.05097967  0.56880017  0.42993867  1
  Li  Li1533  1  0.05097967  0.56880017  0.59660533  1
  Li  Li1534  1  0.05097967  0.56880017  0.76327200  1
  Li  Li1535  1  0.05097967  0.56880017  0.92993867  1
  Li  Li1536  1  0.05097967  0.73546683  0.09660533  1
  Li  Li1537  1  0.05097967  0.73546683  0.26327200  1
  Li  Li1538  1  0.05097967  0.73546683  0.42993867  1
  Li  Li1539  1  0.05097967  0.73546683  0.59660533  1
  Li  Li1540  1  0.05097967  0.73546683  0.76327200  1
  Li  Li1541  1  0.05097967  0.73546683  0.92993867  1
  Li  Li1542  1  0.05097967  0.90213350  0.09660533  1
  Li  Li1543  1  0.05097967  0.90213350  0.26327200  1
  Li  Li1544  1  0.05097967  0.90213350  0.42993867  1
  Li  Li1545  1  0.05097967  0.90213350  0.59660533  1
  Li  Li1546  1  0.05097967  0.90213350  0.76327200  1
  Li  Li1547  1  0.05097967  0.90213350  0.92993867  1
  Li  Li1548  1  0.21764633  0.06880017  0.09660533  1
  Li  Li1549  1  0.21764633  0.06880017  0.26327200  1
  Li  Li1550  1  0.21764633  0.06880017  0.42993867  1
  Li  Li1551  1  0.21764633  0.06880017  0.59660533  1
  Li  Li1552  1  0.21764633  0.06880017  0.76327200  1
  Li  Li1553  1  0.21764633  0.06880017  0.92993867  1
  Li  Li1554  1  0.21764633  0.23546683  0.09660533  1
  Li  Li1555  1  0.21764633  0.23546683  0.26327200  1
  Li  Li1556  1  0.21764633  0.23546683  0.42993867  1
  Li  Li1557  1  0.21764633  0.23546683  0.59660533  1
  Li  Li1558  1  0.21764633  0.23546683  0.76327200  1
  Li  Li1559  1  0.21764633  0.23546683  0.92993867  1
  Li  Li1560  1  0.21764633  0.40213350  0.09660533  1
  Li  Li1561  1  0.21764633  0.40213350  0.26327200  1
  Li  Li1562  1  0.21764633  0.40213350  0.42993867  1
  Li  Li1563  1  0.21764633  0.40213350  0.59660533  1
  Li  Li1564  1  0.21764633  0.40213350  0.76327200  1
  Li  Li1565  1  0.21764633  0.40213350  0.92993867  1
  Li  Li1566  1  0.21764633  0.56880017  0.09660533  1
  Li  Li1567  1  0.21764633  0.56880017  0.26327200  1
  Li  Li1568  1  0.21764633  0.56880017  0.42993867  1
  Li  Li1569  1  0.21764633  0.56880017  0.59660533  1
  Li  Li1570  1  0.21764633  0.56880017  0.76327200  1
  Li  Li1571  1  0.21764633  0.56880017  0.92993867  1
  Li  Li1572  1  0.21764633  0.73546683  0.09660533  1
  Li  Li1573  1  0.21764633  0.73546683  0.26327200  1
  Li  Li1574  1  0.21764633  0.73546683  0.42993867  1
  Li  Li1575  1  0.21764633  0.73546683  0.59660533  1
  Li  Li1576  1  0.21764633  0.73546683  0.76327200  1
  Li  Li1577  1  0.21764633  0.73546683  0.92993867  1
  Li  Li1578  1  0.21764633  0.90213350  0.09660533  1
  Li  Li1579  1  0.21764633  0.90213350  0.26327200  1
  Li  Li1580  1  0.21764633  0.90213350  0.42993867  1
  Li  Li1581  1  0.21764633  0.90213350  0.59660533  1
  Li  Li1582  1  0.21764633  0.90213350  0.76327200  1
  Li  Li1583  1  0.21764633  0.90213350  0.92993867  1
  Li  Li1584  1  0.38431300  0.06880017  0.09660533  1
  Li  Li1585  1  0.38431300  0.06880017  0.26327200  1
  Li  Li1586  1  0.38431300  0.06880017  0.42993867  1
  Li  Li1587  1  0.38431300  0.06880017  0.59660533  1
  Li  Li1588  1  0.38431300  0.06880017  0.76327200  1
  Li  Li1589  1  0.38431300  0.06880017  0.92993867  1
  Li  Li1590  1  0.38431300  0.23546683  0.09660533  1
  Li  Li1591  1  0.38431300  0.23546683  0.26327200  1
  Li  Li1592  1  0.38431300  0.23546683  0.42993867  1
  Li  Li1593  1  0.38431300  0.23546683  0.59660533  1
  Li  Li1594  1  0.38431300  0.23546683  0.76327200  1
  Li  Li1595  1  0.38431300  0.23546683  0.92993867  1
  Li  Li1596  1  0.38431300  0.40213350  0.09660533  1
  Li  Li1597  1  0.38431300  0.40213350  0.26327200  1
  Li  Li1598  1  0.38431300  0.40213350  0.42993867  1
  Li  Li1599  1  0.38431300  0.40213350  0.59660533  1
  Li  Li1600  1  0.38431300  0.40213350  0.76327200  1
  Li  Li1601  1  0.38431300  0.40213350  0.92993867  1
  Li  Li1602  1  0.38431300  0.56880017  0.09660533  1
  Li  Li1603  1  0.38431300  0.56880017  0.26327200  1
  Li  Li1604  1  0.38431300  0.56880017  0.42993867  1
  Li  Li1605  1  0.38431300  0.56880017  0.59660533  1
  Li  Li1606  1  0.38431300  0.56880017  0.76327200  1
  Li  Li1607  1  0.38431300  0.56880017  0.92993867  1
  Li  Li1608  1  0.38431300  0.73546683  0.09660533  1
  Li  Li1609  1  0.38431300  0.73546683  0.26327200  1
  Li  Li1610  1  0.38431300  0.73546683  0.42993867  1
  Li  Li1611  1  0.38431300  0.73546683  0.59660533  1
  Li  Li1612  1  0.38431300  0.73546683  0.76327200  1
  Li  Li1613  1  0.38431300  0.73546683  0.92993867  1
  Li  Li1614  1  0.38431300  0.90213350  0.09660533  1
  Li  Li1615  1  0.38431300  0.90213350  0.26327200  1
  Li  Li1616  1  0.38431300  0.90213350  0.42993867  1
  Li  Li1617  1  0.38431300  0.90213350  0.59660533  1
  Li  Li1618  1  0.38431300  0.90213350  0.76327200  1
  Li  Li1619  1  0.38431300  0.90213350  0.92993867  1
  Li  Li1620  1  0.55097967  0.06880017  0.09660533  1
  Li  Li1621  1  0.55097967  0.06880017  0.26327200  1
  Li  Li1622  1  0.55097967  0.06880017  0.42993867  1
  Li  Li1623  1  0.55097967  0.06880017  0.59660533  1
  Li  Li1624  1  0.55097967  0.06880017  0.76327200  1
  Li  Li1625  1  0.55097967  0.06880017  0.92993867  1
  Li  Li1626  1  0.55097967  0.23546683  0.09660533  1
  Li  Li1627  1  0.55097967  0.23546683  0.26327200  1
  Li  Li1628  1  0.55097967  0.23546683  0.42993867  1
  Li  Li1629  1  0.55097967  0.23546683  0.59660533  1
  Li  Li1630  1  0.55097967  0.23546683  0.76327200  1
  Li  Li1631  1  0.55097967  0.23546683  0.92993867  1
  Li  Li1632  1  0.55097967  0.40213350  0.09660533  1
  Li  Li1633  1  0.55097967  0.40213350  0.26327200  1
  Li  Li1634  1  0.55097967  0.40213350  0.42993867  1
  Li  Li1635  1  0.55097967  0.40213350  0.59660533  1
  Li  Li1636  1  0.55097967  0.40213350  0.76327200  1
  Li  Li1637  1  0.55097967  0.40213350  0.92993867  1
  Li  Li1638  1  0.55097967  0.56880017  0.09660533  1
  Li  Li1639  1  0.55097967  0.56880017  0.26327200  1
  Li  Li1640  1  0.55097967  0.56880017  0.42993867  1
  Li  Li1641  1  0.55097967  0.56880017  0.59660533  1
  Li  Li1642  1  0.55097967  0.56880017  0.76327200  1
  Li  Li1643  1  0.55097967  0.56880017  0.92993867  1
  Li  Li1644  1  0.55097967  0.73546683  0.09660533  1
  Li  Li1645  1  0.55097967  0.73546683  0.26327200  1
  Li  Li1646  1  0.55097967  0.73546683  0.42993867  1
  Li  Li1647  1  0.55097967  0.73546683  0.59660533  1
  Li  Li1648  1  0.55097967  0.73546683  0.76327200  1
  Li  Li1649  1  0.55097967  0.73546683  0.92993867  1
  Li  Li1650  1  0.55097967  0.90213350  0.09660533  1
  Li  Li1651  1  0.55097967  0.90213350  0.26327200  1
  Li  Li1652  1  0.55097967  0.90213350  0.42993867  1
  Li  Li1653  1  0.55097967  0.90213350  0.59660533  1
  Li  Li1654  1  0.55097967  0.90213350  0.76327200  1
  Li  Li1655  1  0.55097967  0.90213350  0.92993867  1
  Li  Li1656  1  0.71764633  0.06880017  0.09660533  1
  Li  Li1657  1  0.71764633  0.06880017  0.26327200  1
  Li  Li1658  1  0.71764633  0.06880017  0.42993867  1
  Li  Li1659  1  0.71764633  0.06880017  0.59660533  1
  Li  Li1660  1  0.71764633  0.06880017  0.76327200  1
  Li  Li1661  1  0.71764633  0.06880017  0.92993867  1
  Li  Li1662  1  0.71764633  0.23546683  0.09660533  1
  Li  Li1663  1  0.71764633  0.23546683  0.26327200  1
  Li  Li1664  1  0.71764633  0.23546683  0.42993867  1
  Li  Li1665  1  0.71764633  0.23546683  0.59660533  1
  Li  Li1666  1  0.71764633  0.23546683  0.76327200  1
  Li  Li1667  1  0.71764633  0.23546683  0.92993867  1
  Li  Li1668  1  0.71764633  0.40213350  0.09660533  1
  Li  Li1669  1  0.71764633  0.40213350  0.26327200  1
  Li  Li1670  1  0.71764633  0.40213350  0.42993867  1
  Li  Li1671  1  0.71764633  0.40213350  0.59660533  1
  Li  Li1672  1  0.71764633  0.40213350  0.76327200  1
  Li  Li1673  1  0.71764633  0.40213350  0.92993867  1
  Li  Li1674  1  0.71764633  0.56880017  0.09660533  1
  Li  Li1675  1  0.71764633  0.56880017  0.26327200  1
  Li  Li1676  1  0.71764633  0.56880017  0.42993867  1
  Li  Li1677  1  0.71764633  0.56880017  0.59660533  1
  Li  Li1678  1  0.71764633  0.56880017  0.76327200  1
  Li  Li1679  1  0.71764633  0.56880017  0.92993867  1
  Li  Li1680  1  0.71764633  0.73546683  0.09660533  1
  Li  Li1681  1  0.71764633  0.73546683  0.26327200  1
  Li  Li1682  1  0.71764633  0.73546683  0.42993867  1
  Li  Li1683  1  0.71764633  0.73546683  0.59660533  1
  Li  Li1684  1  0.71764633  0.73546683  0.76327200  1
  Li  Li1685  1  0.71764633  0.73546683  0.92993867  1
  Li  Li1686  1  0.71764633  0.90213350  0.09660533  1
  Li  Li1687  1  0.71764633  0.90213350  0.26327200  1
  Li  Li1688  1  0.71764633  0.90213350  0.42993867  1
  Li  Li1689  1  0.71764633  0.90213350  0.59660533  1
  Li  Li1690  1  0.71764633  0.90213350  0.76327200  1
  Li  Li1691  1  0.71764633  0.90213350  0.92993867  1
  Li  Li1692  1  0.88431300  0.06880017  0.09660533  1
  Li  Li1693  1  0.88431300  0.06880017  0.26327200  1
  Li  Li1694  1  0.88431300  0.06880017  0.42993867  1
  Li  Li1695  1  0.88431300  0.06880017  0.59660533  1
  Li  Li1696  1  0.88431300  0.06880017  0.76327200  1
  Li  Li1697  1  0.88431300  0.06880017  0.92993867  1
  Li  Li1698  1  0.88431300  0.23546683  0.09660533  1
  Li  Li1699  1  0.88431300  0.23546683  0.26327200  1
  Li  Li1700  1  0.88431300  0.23546683  0.42993867  1
  Li  Li1701  1  0.88431300  0.23546683  0.59660533  1
  Li  Li1702  1  0.88431300  0.23546683  0.76327200  1
  Li  Li1703  1  0.88431300  0.23546683  0.92993867  1
  Li  Li1704  1  0.88431300  0.40213350  0.09660533  1
  Li  Li1705  1  0.88431300  0.40213350  0.26327200  1
  Li  Li1706  1  0.88431300  0.40213350  0.42993867  1
  Li  Li1707  1  0.88431300  0.40213350  0.59660533  1
  Li  Li1708  1  0.88431300  0.40213350  0.76327200  1
  Li  Li1709  1  0.88431300  0.40213350  0.92993867  1
  Li  Li1710  1  0.88431300  0.56880017  0.09660533  1
  Li  Li1711  1  0.88431300  0.56880017  0.26327200  1
  Li  Li1712  1  0.88431300  0.56880017  0.42993867  1
  Li  Li1713  1  0.88431300  0.56880017  0.59660533  1
  Li  Li1714  1  0.88431300  0.56880017  0.76327200  1
  Li  Li1715  1  0.88431300  0.56880017  0.92993867  1
  Li  Li1716  1  0.88431300  0.73546683  0.09660533  1
  Li  Li1717  1  0.88431300  0.73546683  0.26327200  1
  Li  Li1718  1  0.88431300  0.73546683  0.42993867  1
  Li  Li1719  1  0.88431300  0.73546683  0.59660533  1
  Li  Li1720  1  0.88431300  0.73546683  0.76327200  1
  Li  Li1721  1  0.88431300  0.73546683  0.92993867  1
  Li  Li1722  1  0.88431300  0.90213350  0.09660533  1
  Li  Li1723  1  0.88431300  0.90213350  0.26327200  1
  Li  Li1724  1  0.88431300  0.90213350  0.42993867  1
  Li  Li1725  1  0.88431300  0.90213350  0.59660533  1
  Li  Li1726  1  0.88431300  0.90213350  0.76327200  1
  Li  Li1727  1  0.88431300  0.90213350  0.92993867  1
  Ge  Ge1728  1  0.14382067  0.05288000  0.11745467  1
  Ge  Ge1729  1  0.14382067  0.05288000  0.28412133  1
  Ge  Ge1730  1  0.14382067  0.05288000  0.45078800  1
  Ge  Ge1731  1  0.14382067  0.05288000  0.61745467  1
  Ge  Ge1732  1  0.14382067  0.05288000  0.78412133  1
  Ge  Ge1733  1  0.14382067  0.05288000  0.95078800  1
  Ge  Ge1734  1  0.14382067  0.21954667  0.11745467  1
  Ge  Ge1735  1  0.14382067  0.21954667  0.28412133  1
  Ge  Ge1736  1  0.14382067  0.21954667  0.45078800  1
  Ge  Ge1737  1  0.14382067  0.21954667  0.61745467  1
  Ge  Ge1738  1  0.14382067  0.21954667  0.78412133  1
  Ge  Ge1739  1  0.14382067  0.21954667  0.95078800  1
  Ge  Ge1740  1  0.14382067  0.38621333  0.11745467  1
  Ge  Ge1741  1  0.14382067  0.38621333  0.28412133  1
  Ge  Ge1742  1  0.14382067  0.38621333  0.45078800  1
  Ge  Ge1743  1  0.14382067  0.38621333  0.61745467  1
  Ge  Ge1744  1  0.14382067  0.38621333  0.78412133  1
  Ge  Ge1745  1  0.14382067  0.38621333  0.95078800  1
  Ge  Ge1746  1  0.14382067  0.55288000  0.11745467  1
  Ge  Ge1747  1  0.14382067  0.55288000  0.28412133  1
  Ge  Ge1748  1  0.14382067  0.55288000  0.45078800  1
  Ge  Ge1749  1  0.14382067  0.55288000  0.61745467  1
  Ge  Ge1750  1  0.14382067  0.55288000  0.78412133  1
  Ge  Ge1751  1  0.14382067  0.55288000  0.95078800  1
  Ge  Ge1752  1  0.14382067  0.71954667  0.11745467  1
  Ge  Ge1753  1  0.14382067  0.71954667  0.28412133  1
  Ge  Ge1754  1  0.14382067  0.71954667  0.45078800  1
  Ge  Ge1755  1  0.14382067  0.71954667  0.61745467  1
  Ge  Ge1756  1  0.14382067  0.71954667  0.78412133  1
  Ge  Ge1757  1  0.14382067  0.71954667  0.95078800  1
  Ge  Ge1758  1  0.14382067  0.88621333  0.11745467  1
  Ge  Ge1759  1  0.14382067  0.88621333  0.28412133  1
  Ge  Ge1760  1  0.14382067  0.88621333  0.45078800  1
  Ge  Ge1761  1  0.14382067  0.88621333  0.61745467  1
  Ge  Ge1762  1  0.14382067  0.88621333  0.78412133  1
  Ge  Ge1763  1  0.14382067  0.88621333  0.95078800  1
  Ge  Ge1764  1  0.31048733  0.05288000  0.11745467  1
  Ge  Ge1765  1  0.31048733  0.05288000  0.28412133  1
  Ge  Ge1766  1  0.31048733  0.05288000  0.45078800  1
  Ge  Ge1767  1  0.31048733  0.05288000  0.61745467  1
  Ge  Ge1768  1  0.31048733  0.05288000  0.78412133  1
  Ge  Ge1769  1  0.31048733  0.05288000  0.95078800  1
  Ge  Ge1770  1  0.31048733  0.21954667  0.11745467  1
  Ge  Ge1771  1  0.31048733  0.21954667  0.28412133  1
  Ge  Ge1772  1  0.31048733  0.21954667  0.45078800  1
  Ge  Ge1773  1  0.31048733  0.21954667  0.61745467  1
  Ge  Ge1774  1  0.31048733  0.21954667  0.78412133  1
  Ge  Ge1775  1  0.31048733  0.21954667  0.95078800  1
  Ge  Ge1776  1  0.31048733  0.38621333  0.11745467  1
  Ge  Ge1777  1  0.31048733  0.38621333  0.28412133  1
  Ge  Ge1778  1  0.31048733  0.38621333  0.45078800  1
  Ge  Ge1779  1  0.31048733  0.38621333  0.61745467  1
  Ge  Ge1780  1  0.31048733  0.38621333  0.78412133  1
  Ge  Ge1781  1  0.31048733  0.38621333  0.95078800  1
  Ge  Ge1782  1  0.31048733  0.55288000  0.11745467  1
  Ge  Ge1783  1  0.31048733  0.55288000  0.28412133  1
  Ge  Ge1784  1  0.31048733  0.55288000  0.45078800  1
  Ge  Ge1785  1  0.31048733  0.55288000  0.61745467  1
  Ge  Ge1786  1  0.31048733  0.55288000  0.78412133  1
  Ge  Ge1787  1  0.31048733  0.55288000  0.95078800  1
  Ge  Ge1788  1  0.31048733  0.71954667  0.11745467  1
  Ge  Ge1789  1  0.31048733  0.71954667  0.28412133  1
  Ge  Ge1790  1  0.31048733  0.71954667  0.45078800  1
  Ge  Ge1791  1  0.31048733  0.71954667  0.61745467  1
  Ge  Ge1792  1  0.31048733  0.71954667  0.78412133  1
  Ge  Ge1793  1  0.31048733  0.71954667  0.95078800  1
  Ge  Ge1794  1  0.31048733  0.88621333  0.11745467  1
  Ge  Ge1795  1  0.31048733  0.88621333  0.28412133  1
  Ge  Ge1796  1  0.31048733  0.88621333  0.45078800  1
  Ge  Ge1797  1  0.31048733  0.88621333  0.61745467  1
  Ge  Ge1798  1  0.31048733  0.88621333  0.78412133  1
  Ge  Ge1799  1  0.31048733  0.88621333  0.95078800  1
  Ge  Ge1800  1  0.47715400  0.05288000  0.11745467  1
  Ge  Ge1801  1  0.47715400  0.05288000  0.28412133  1
  Ge  Ge1802  1  0.47715400  0.05288000  0.45078800  1
  Ge  Ge1803  1  0.47715400  0.05288000  0.61745467  1
  Ge  Ge1804  1  0.47715400  0.05288000  0.78412133  1
  Ge  Ge1805  1  0.47715400  0.05288000  0.95078800  1
  Ge  Ge1806  1  0.47715400  0.21954667  0.11745467  1
  Ge  Ge1807  1  0.47715400  0.21954667  0.28412133  1
  Ge  Ge1808  1  0.47715400  0.21954667  0.45078800  1
  Ge  Ge1809  1  0.47715400  0.21954667  0.61745467  1
  Ge  Ge1810  1  0.47715400  0.21954667  0.78412133  1
  Ge  Ge1811  1  0.47715400  0.21954667  0.95078800  1
  Ge  Ge1812  1  0.47715400  0.38621333  0.11745467  1
  Ge  Ge1813  1  0.47715400  0.38621333  0.28412133  1
  Ge  Ge1814  1  0.47715400  0.38621333  0.45078800  1
  Ge  Ge1815  1  0.47715400  0.38621333  0.61745467  1
  Ge  Ge1816  1  0.47715400  0.38621333  0.78412133  1
  Ge  Ge1817  1  0.47715400  0.38621333  0.95078800  1
  Ge  Ge1818  1  0.47715400  0.55288000  0.11745467  1
  Ge  Ge1819  1  0.47715400  0.55288000  0.28412133  1
  Ge  Ge1820  1  0.47715400  0.55288000  0.45078800  1
  Ge  Ge1821  1  0.47715400  0.55288000  0.61745467  1
  Ge  Ge1822  1  0.47715400  0.55288000  0.78412133  1
  Ge  Ge1823  1  0.47715400  0.55288000  0.95078800  1
  Ge  Ge1824  1  0.47715400  0.71954667  0.11745467  1
  Ge  Ge1825  1  0.47715400  0.71954667  0.28412133  1
  Ge  Ge1826  1  0.47715400  0.71954667  0.45078800  1
  Ge  Ge1827  1  0.47715400  0.71954667  0.61745467  1
  Ge  Ge1828  1  0.47715400  0.71954667  0.78412133  1
  Ge  Ge1829  1  0.47715400  0.71954667  0.95078800  1
  Ge  Ge1830  1  0.47715400  0.88621333  0.11745467  1
  Ge  Ge1831  1  0.47715400  0.88621333  0.28412133  1
  Ge  Ge1832  1  0.47715400  0.88621333  0.45078800  1
  Ge  Ge1833  1  0.47715400  0.88621333  0.61745467  1
  Ge  Ge1834  1  0.47715400  0.88621333  0.78412133  1
  Ge  Ge1835  1  0.47715400  0.88621333  0.95078800  1
  Ge  Ge1836  1  0.64382067  0.05288000  0.11745467  1
  Ge  Ge1837  1  0.64382067  0.05288000  0.28412133  1
  Ge  Ge1838  1  0.64382067  0.05288000  0.45078800  1
  Ge  Ge1839  1  0.64382067  0.05288000  0.61745467  1
  Ge  Ge1840  1  0.64382067  0.05288000  0.78412133  1
  Ge  Ge1841  1  0.64382067  0.05288000  0.95078800  1
  Ge  Ge1842  1  0.64382067  0.21954667  0.11745467  1
  Ge  Ge1843  1  0.64382067  0.21954667  0.28412133  1
  Ge  Ge1844  1  0.64382067  0.21954667  0.45078800  1
  Ge  Ge1845  1  0.64382067  0.21954667  0.61745467  1
  Ge  Ge1846  1  0.64382067  0.21954667  0.78412133  1
  Ge  Ge1847  1  0.64382067  0.21954667  0.95078800  1
  Ge  Ge1848  1  0.64382067  0.38621333  0.11745467  1
  Ge  Ge1849  1  0.64382067  0.38621333  0.28412133  1
  Ge  Ge1850  1  0.64382067  0.38621333  0.45078800  1
  Ge  Ge1851  1  0.64382067  0.38621333  0.61745467  1
  Ge  Ge1852  1  0.64382067  0.38621333  0.78412133  1
  Ge  Ge1853  1  0.64382067  0.38621333  0.95078800  1
  Ge  Ge1854  1  0.64382067  0.55288000  0.11745467  1
  Ge  Ge1855  1  0.64382067  0.55288000  0.28412133  1
  Ge  Ge1856  1  0.64382067  0.55288000  0.45078800  1
  Ge  Ge1857  1  0.64382067  0.55288000  0.61745467  1
  Ge  Ge1858  1  0.64382067  0.55288000  0.78412133  1
  Ge  Ge1859  1  0.64382067  0.55288000  0.95078800  1
  Ge  Ge1860  1  0.64382067  0.71954667  0.11745467  1
  Ge  Ge1861  1  0.64382067  0.71954667  0.28412133  1
  Ge  Ge1862  1  0.64382067  0.71954667  0.45078800  1
  Ge  Ge1863  1  0.64382067  0.71954667  0.61745467  1
  Ge  Ge1864  1  0.64382067  0.71954667  0.78412133  1
  Ge  Ge1865  1  0.64382067  0.71954667  0.95078800  1
  Ge  Ge1866  1  0.64382067  0.88621333  0.11745467  1
  Ge  Ge1867  1  0.64382067  0.88621333  0.28412133  1
  Ge  Ge1868  1  0.64382067  0.88621333  0.45078800  1
  Ge  Ge1869  1  0.64382067  0.88621333  0.61745467  1
  Ge  Ge1870  1  0.64382067  0.88621333  0.78412133  1
  Ge  Ge1871  1  0.64382067  0.88621333  0.95078800  1
  Ge  Ge1872  1  0.81048733  0.05288000  0.11745467  1
  Ge  Ge1873  1  0.81048733  0.05288000  0.28412133  1
  Ge  Ge1874  1  0.81048733  0.05288000  0.45078800  1
  Ge  Ge1875  1  0.81048733  0.05288000  0.61745467  1
  Ge  Ge1876  1  0.81048733  0.05288000  0.78412133  1
  Ge  Ge1877  1  0.81048733  0.05288000  0.95078800  1
  Ge  Ge1878  1  0.81048733  0.21954667  0.11745467  1
  Ge  Ge1879  1  0.81048733  0.21954667  0.28412133  1
  Ge  Ge1880  1  0.81048733  0.21954667  0.45078800  1
  Ge  Ge1881  1  0.81048733  0.21954667  0.61745467  1
  Ge  Ge1882  1  0.81048733  0.21954667  0.78412133  1
  Ge  Ge1883  1  0.81048733  0.21954667  0.95078800  1
  Ge  Ge1884  1  0.81048733  0.38621333  0.11745467  1
  Ge  Ge1885  1  0.81048733  0.38621333  0.28412133  1
  Ge  Ge1886  1  0.81048733  0.38621333  0.45078800  1
  Ge  Ge1887  1  0.81048733  0.38621333  0.61745467  1
  Ge  Ge1888  1  0.81048733  0.38621333  0.78412133  1
  Ge  Ge1889  1  0.81048733  0.38621333  0.95078800  1
  Ge  Ge1890  1  0.81048733  0.55288000  0.11745467  1
  Ge  Ge1891  1  0.81048733  0.55288000  0.28412133  1
  Ge  Ge1892  1  0.81048733  0.55288000  0.45078800  1
  Ge  Ge1893  1  0.81048733  0.55288000  0.61745467  1
  Ge  Ge1894  1  0.81048733  0.55288000  0.78412133  1
  Ge  Ge1895  1  0.81048733  0.55288000  0.95078800  1
  Ge  Ge1896  1  0.81048733  0.71954667  0.11745467  1
  Ge  Ge1897  1  0.81048733  0.71954667  0.28412133  1
  Ge  Ge1898  1  0.81048733  0.71954667  0.45078800  1
  Ge  Ge1899  1  0.81048733  0.71954667  0.61745467  1
  Ge  Ge1900  1  0.81048733  0.71954667  0.78412133  1
  Ge  Ge1901  1  0.81048733  0.71954667  0.95078800  1
  Ge  Ge1902  1  0.81048733  0.88621333  0.11745467  1
  Ge  Ge1903  1  0.81048733  0.88621333  0.28412133  1
  Ge  Ge1904  1  0.81048733  0.88621333  0.45078800  1
  Ge  Ge1905  1  0.81048733  0.88621333  0.61745467  1
  Ge  Ge1906  1  0.81048733  0.88621333  0.78412133  1
  Ge  Ge1907  1  0.81048733  0.88621333  0.95078800  1
  Ge  Ge1908  1  0.97715400  0.05288000  0.11745467  1
  Ge  Ge1909  1  0.97715400  0.05288000  0.28412133  1
  Ge  Ge1910  1  0.97715400  0.05288000  0.45078800  1
  Ge  Ge1911  1  0.97715400  0.05288000  0.61745467  1
  Ge  Ge1912  1  0.97715400  0.05288000  0.78412133  1
  Ge  Ge1913  1  0.97715400  0.05288000  0.95078800  1
  Ge  Ge1914  1  0.97715400  0.21954667  0.11745467  1
  Ge  Ge1915  1  0.97715400  0.21954667  0.28412133  1
  Ge  Ge1916  1  0.97715400  0.21954667  0.45078800  1
  Ge  Ge1917  1  0.97715400  0.21954667  0.61745467  1
  Ge  Ge1918  1  0.97715400  0.21954667  0.78412133  1
  Ge  Ge1919  1  0.97715400  0.21954667  0.95078800  1
  Ge  Ge1920  1  0.97715400  0.38621333  0.11745467  1
  Ge  Ge1921  1  0.97715400  0.38621333  0.28412133  1
  Ge  Ge1922  1  0.97715400  0.38621333  0.45078800  1
  Ge  Ge1923  1  0.97715400  0.38621333  0.61745467  1
  Ge  Ge1924  1  0.97715400  0.38621333  0.78412133  1
  Ge  Ge1925  1  0.97715400  0.38621333  0.95078800  1
  Ge  Ge1926  1  0.97715400  0.55288000  0.11745467  1
  Ge  Ge1927  1  0.97715400  0.55288000  0.28412133  1
  Ge  Ge1928  1  0.97715400  0.55288000  0.45078800  1
  Ge  Ge1929  1  0.97715400  0.55288000  0.61745467  1
  Ge  Ge1930  1  0.97715400  0.55288000  0.78412133  1
  Ge  Ge1931  1  0.97715400  0.55288000  0.95078800  1
  Ge  Ge1932  1  0.97715400  0.71954667  0.11745467  1
  Ge  Ge1933  1  0.97715400  0.71954667  0.28412133  1
  Ge  Ge1934  1  0.97715400  0.71954667  0.45078800  1
  Ge  Ge1935  1  0.97715400  0.71954667  0.61745467  1
  Ge  Ge1936  1  0.97715400  0.71954667  0.78412133  1
  Ge  Ge1937  1  0.97715400  0.71954667  0.95078800  1
  Ge  Ge1938  1  0.97715400  0.88621333  0.11745467  1
  Ge  Ge1939  1  0.97715400  0.88621333  0.28412133  1
  Ge  Ge1940  1  0.97715400  0.88621333  0.45078800  1
  Ge  Ge1941  1  0.97715400  0.88621333  0.61745467  1
  Ge  Ge1942  1  0.97715400  0.88621333  0.78412133  1
  Ge  Ge1943  1  0.97715400  0.88621333  0.95078800  1
  Ge  Ge1944  1  0.02284600  0.11378667  0.04921200  1
  Ge  Ge1945  1  0.02284600  0.11378667  0.21587867  1
  Ge  Ge1946  1  0.02284600  0.11378667  0.38254533  1
  Ge  Ge1947  1  0.02284600  0.11378667  0.54921200  1
  Ge  Ge1948  1  0.02284600  0.11378667  0.71587867  1
  Ge  Ge1949  1  0.02284600  0.11378667  0.88254533  1
  Ge  Ge1950  1  0.02284600  0.28045333  0.04921200  1
  Ge  Ge1951  1  0.02284600  0.28045333  0.21587867  1
  Ge  Ge1952  1  0.02284600  0.28045333  0.38254533  1
  Ge  Ge1953  1  0.02284600  0.28045333  0.54921200  1
  Ge  Ge1954  1  0.02284600  0.28045333  0.71587867  1
  Ge  Ge1955  1  0.02284600  0.28045333  0.88254533  1
  Ge  Ge1956  1  0.02284600  0.44712000  0.04921200  1
  Ge  Ge1957  1  0.02284600  0.44712000  0.21587867  1
  Ge  Ge1958  1  0.02284600  0.44712000  0.38254533  1
  Ge  Ge1959  1  0.02284600  0.44712000  0.54921200  1
  Ge  Ge1960  1  0.02284600  0.44712000  0.71587867  1
  Ge  Ge1961  1  0.02284600  0.44712000  0.88254533  1
  Ge  Ge1962  1  0.02284600  0.61378667  0.04921200  1
  Ge  Ge1963  1  0.02284600  0.61378667  0.21587867  1
  Ge  Ge1964  1  0.02284600  0.61378667  0.38254533  1
  Ge  Ge1965  1  0.02284600  0.61378667  0.54921200  1
  Ge  Ge1966  1  0.02284600  0.61378667  0.71587867  1
  Ge  Ge1967  1  0.02284600  0.61378667  0.88254533  1
  Ge  Ge1968  1  0.02284600  0.78045333  0.04921200  1
  Ge  Ge1969  1  0.02284600  0.78045333  0.21587867  1
  Ge  Ge1970  1  0.02284600  0.78045333  0.38254533  1
  Ge  Ge1971  1  0.02284600  0.78045333  0.54921200  1
  Ge  Ge1972  1  0.02284600  0.78045333  0.71587867  1
  Ge  Ge1973  1  0.02284600  0.78045333  0.88254533  1
  Ge  Ge1974  1  0.02284600  0.94712000  0.04921200  1
  Ge  Ge1975  1  0.02284600  0.94712000  0.21587867  1
  Ge  Ge1976  1  0.02284600  0.94712000  0.38254533  1
  Ge  Ge1977  1  0.02284600  0.94712000  0.54921200  1
  Ge  Ge1978  1  0.02284600  0.94712000  0.71587867  1
  Ge  Ge1979  1  0.02284600  0.94712000  0.88254533  1
  Ge  Ge1980  1  0.18951267  0.11378667  0.04921200  1
  Ge  Ge1981  1  0.18951267  0.11378667  0.21587867  1
  Ge  Ge1982  1  0.18951267  0.11378667  0.38254533  1
  Ge  Ge1983  1  0.18951267  0.11378667  0.54921200  1
  Ge  Ge1984  1  0.18951267  0.11378667  0.71587867  1
  Ge  Ge1985  1  0.18951267  0.11378667  0.88254533  1
  Ge  Ge1986  1  0.18951267  0.28045333  0.04921200  1
  Ge  Ge1987  1  0.18951267  0.28045333  0.21587867  1
  Ge  Ge1988  1  0.18951267  0.28045333  0.38254533  1
  Ge  Ge1989  1  0.18951267  0.28045333  0.54921200  1
  Ge  Ge1990  1  0.18951267  0.28045333  0.71587867  1
  Ge  Ge1991  1  0.18951267  0.28045333  0.88254533  1
  Ge  Ge1992  1  0.18951267  0.44712000  0.04921200  1
  Ge  Ge1993  1  0.18951267  0.44712000  0.21587867  1
  Ge  Ge1994  1  0.18951267  0.44712000  0.38254533  1
  Ge  Ge1995  1  0.18951267  0.44712000  0.54921200  1
  Ge  Ge1996  1  0.18951267  0.44712000  0.71587867  1
  Ge  Ge1997  1  0.18951267  0.44712000  0.88254533  1
  Ge  Ge1998  1  0.18951267  0.61378667  0.04921200  1
  Ge  Ge1999  1  0.18951267  0.61378667  0.21587867  1
  Ge  Ge2000  1  0.18951267  0.61378667  0.38254533  1
  Ge  Ge2001  1  0.18951267  0.61378667  0.54921200  1
  Ge  Ge2002  1  0.18951267  0.61378667  0.71587867  1
  Ge  Ge2003  1  0.18951267  0.61378667  0.88254533  1
  Ge  Ge2004  1  0.18951267  0.78045333  0.04921200  1
  Ge  Ge2005  1  0.18951267  0.78045333  0.21587867  1
  Ge  Ge2006  1  0.18951267  0.78045333  0.38254533  1
  Ge  Ge2007  1  0.18951267  0.78045333  0.54921200  1
  Ge  Ge2008  1  0.18951267  0.78045333  0.71587867  1
  Ge  Ge2009  1  0.18951267  0.78045333  0.88254533  1
  Ge  Ge2010  1  0.18951267  0.94712000  0.04921200  1
  Ge  Ge2011  1  0.18951267  0.94712000  0.21587867  1
  Ge  Ge2012  1  0.18951267  0.94712000  0.38254533  1
  Ge  Ge2013  1  0.18951267  0.94712000  0.54921200  1
  Ge  Ge2014  1  0.18951267  0.94712000  0.71587867  1
  Ge  Ge2015  1  0.18951267  0.94712000  0.88254533  1
  Ge  Ge2016  1  0.35617933  0.11378667  0.04921200  1
  Ge  Ge2017  1  0.35617933  0.11378667  0.21587867  1
  Ge  Ge2018  1  0.35617933  0.11378667  0.38254533  1
  Ge  Ge2019  1  0.35617933  0.11378667  0.54921200  1
  Ge  Ge2020  1  0.35617933  0.11378667  0.71587867  1
  Ge  Ge2021  1  0.35617933  0.11378667  0.88254533  1
  Ge  Ge2022  1  0.35617933  0.28045333  0.04921200  1
  Ge  Ge2023  1  0.35617933  0.28045333  0.21587867  1
  Ge  Ge2024  1  0.35617933  0.28045333  0.38254533  1
  Ge  Ge2025  1  0.35617933  0.28045333  0.54921200  1
  Ge  Ge2026  1  0.35617933  0.28045333  0.71587867  1
  Ge  Ge2027  1  0.35617933  0.28045333  0.88254533  1
  Ge  Ge2028  1  0.35617933  0.44712000  0.04921200  1
  Ge  Ge2029  1  0.35617933  0.44712000  0.21587867  1
  Ge  Ge2030  1  0.35617933  0.44712000  0.38254533  1
  Ge  Ge2031  1  0.35617933  0.44712000  0.54921200  1
  Ge  Ge2032  1  0.35617933  0.44712000  0.71587867  1
  Ge  Ge2033  1  0.35617933  0.44712000  0.88254533  1
  Ge  Ge2034  1  0.35617933  0.61378667  0.04921200  1
  Ge  Ge2035  1  0.35617933  0.61378667  0.21587867  1
  Ge  Ge2036  1  0.35617933  0.61378667  0.38254533  1
  Ge  Ge2037  1  0.35617933  0.61378667  0.54921200  1
  Ge  Ge2038  1  0.35617933  0.61378667  0.71587867  1
  Ge  Ge2039  1  0.35617933  0.61378667  0.88254533  1
  Ge  Ge2040  1  0.35617933  0.78045333  0.04921200  1
  Ge  Ge2041  1  0.35617933  0.78045333  0.21587867  1
  Ge  Ge2042  1  0.35617933  0.78045333  0.38254533  1
  Ge  Ge2043  1  0.35617933  0.78045333  0.54921200  1
  Ge  Ge2044  1  0.35617933  0.78045333  0.71587867  1
  Ge  Ge2045  1  0.35617933  0.78045333  0.88254533  1
  Ge  Ge2046  1  0.35617933  0.94712000  0.04921200  1
  Ge  Ge2047  1  0.35617933  0.94712000  0.21587867  1
  Ge  Ge2048  1  0.35617933  0.94712000  0.38254533  1
  Ge  Ge2049  1  0.35617933  0.94712000  0.54921200  1
  Ge  Ge2050  1  0.35617933  0.94712000  0.71587867  1
  Ge  Ge2051  1  0.35617933  0.94712000  0.88254533  1
  Ge  Ge2052  1  0.52284600  0.11378667  0.04921200  1
  Ge  Ge2053  1  0.52284600  0.11378667  0.21587867  1
  Ge  Ge2054  1  0.52284600  0.11378667  0.38254533  1
  Ge  Ge2055  1  0.52284600  0.11378667  0.54921200  1
  Ge  Ge2056  1  0.52284600  0.11378667  0.71587867  1
  Ge  Ge2057  1  0.52284600  0.11378667  0.88254533  1
  Ge  Ge2058  1  0.52284600  0.28045333  0.04921200  1
  Ge  Ge2059  1  0.52284600  0.28045333  0.21587867  1
  Ge  Ge2060  1  0.52284600  0.28045333  0.38254533  1
  Ge  Ge2061  1  0.52284600  0.28045333  0.54921200  1
  Ge  Ge2062  1  0.52284600  0.28045333  0.71587867  1
  Ge  Ge2063  1  0.52284600  0.28045333  0.88254533  1
  Ge  Ge2064  1  0.52284600  0.44712000  0.04921200  1
  Ge  Ge2065  1  0.52284600  0.44712000  0.21587867  1
  Ge  Ge2066  1  0.52284600  0.44712000  0.38254533  1
  Ge  Ge2067  1  0.52284600  0.44712000  0.54921200  1
  Ge  Ge2068  1  0.52284600  0.44712000  0.71587867  1
  Ge  Ge2069  1  0.52284600  0.44712000  0.88254533  1
  Ge  Ge2070  1  0.52284600  0.61378667  0.04921200  1
  Ge  Ge2071  1  0.52284600  0.61378667  0.21587867  1
  Ge  Ge2072  1  0.52284600  0.61378667  0.38254533  1
  Ge  Ge2073  1  0.52284600  0.61378667  0.54921200  1
  Ge  Ge2074  1  0.52284600  0.61378667  0.71587867  1
  Ge  Ge2075  1  0.52284600  0.61378667  0.88254533  1
  Ge  Ge2076  1  0.52284600  0.78045333  0.04921200  1
  Ge  Ge2077  1  0.52284600  0.78045333  0.21587867  1
  Ge  Ge2078  1  0.52284600  0.78045333  0.38254533  1
  Ge  Ge2079  1  0.52284600  0.78045333  0.54921200  1
  Ge  Ge2080  1  0.52284600  0.78045333  0.71587867  1
  Ge  Ge2081  1  0.52284600  0.78045333  0.88254533  1
  Ge  Ge2082  1  0.52284600  0.94712000  0.04921200  1
  Ge  Ge2083  1  0.52284600  0.94712000  0.21587867  1
  Ge  Ge2084  1  0.52284600  0.94712000  0.38254533  1
  Ge  Ge2085  1  0.52284600  0.94712000  0.54921200  1
  Ge  Ge2086  1  0.52284600  0.94712000  0.71587867  1
  Ge  Ge2087  1  0.52284600  0.94712000  0.88254533  1
  Ge  Ge2088  1  0.68951267  0.11378667  0.04921200  1
  Ge  Ge2089  1  0.68951267  0.11378667  0.21587867  1
  Ge  Ge2090  1  0.68951267  0.11378667  0.38254533  1
  Ge  Ge2091  1  0.68951267  0.11378667  0.54921200  1
  Ge  Ge2092  1  0.68951267  0.11378667  0.71587867  1
  Ge  Ge2093  1  0.68951267  0.11378667  0.88254533  1
  Ge  Ge2094  1  0.68951267  0.28045333  0.04921200  1
  Ge  Ge2095  1  0.68951267  0.28045333  0.21587867  1
  Ge  Ge2096  1  0.68951267  0.28045333  0.38254533  1
  Ge  Ge2097  1  0.68951267  0.28045333  0.54921200  1
  Ge  Ge2098  1  0.68951267  0.28045333  0.71587867  1
  Ge  Ge2099  1  0.68951267  0.28045333  0.88254533  1
  Ge  Ge2100  1  0.68951267  0.44712000  0.04921200  1
  Ge  Ge2101  1  0.68951267  0.44712000  0.21587867  1
  Ge  Ge2102  1  0.68951267  0.44712000  0.38254533  1
  Ge  Ge2103  1  0.68951267  0.44712000  0.54921200  1
  Ge  Ge2104  1  0.68951267  0.44712000  0.71587867  1
  Ge  Ge2105  1  0.68951267  0.44712000  0.88254533  1
  Ge  Ge2106  1  0.68951267  0.61378667  0.04921200  1
  Ge  Ge2107  1  0.68951267  0.61378667  0.21587867  1
  Ge  Ge2108  1  0.68951267  0.61378667  0.38254533  1
  Ge  Ge2109  1  0.68951267  0.61378667  0.54921200  1
  Ge  Ge2110  1  0.68951267  0.61378667  0.71587867  1
  Ge  Ge2111  1  0.68951267  0.61378667  0.88254533  1
  Ge  Ge2112  1  0.68951267  0.78045333  0.04921200  1
  Ge  Ge2113  1  0.68951267  0.78045333  0.21587867  1
  Ge  Ge2114  1  0.68951267  0.78045333  0.38254533  1
  Ge  Ge2115  1  0.68951267  0.78045333  0.54921200  1
  Ge  Ge2116  1  0.68951267  0.78045333  0.71587867  1
  Ge  Ge2117  1  0.68951267  0.78045333  0.88254533  1
  Ge  Ge2118  1  0.68951267  0.94712000  0.04921200  1
  Ge  Ge2119  1  0.68951267  0.94712000  0.21587867  1
  Ge  Ge2120  1  0.68951267  0.94712000  0.38254533  1
  Ge  Ge2121  1  0.68951267  0.94712000  0.54921200  1
  Ge  Ge2122  1  0.68951267  0.94712000  0.71587867  1
  Ge  Ge2123  1  0.68951267  0.94712000  0.88254533  1
  Ge  Ge2124  1  0.85617933  0.11378667  0.04921200  1
  Ge  Ge2125  1  0.85617933  0.11378667  0.21587867  1
  Ge  Ge2126  1  0.85617933  0.11378667  0.38254533  1
  Ge  Ge2127  1  0.85617933  0.11378667  0.54921200  1
  Ge  Ge2128  1  0.85617933  0.11378667  0.71587867  1
  Ge  Ge2129  1  0.85617933  0.11378667  0.88254533  1
  Ge  Ge2130  1  0.85617933  0.28045333  0.04921200  1
  Ge  Ge2131  1  0.85617933  0.28045333  0.21587867  1
  Ge  Ge2132  1  0.85617933  0.28045333  0.38254533  1
  Ge  Ge2133  1  0.85617933  0.28045333  0.54921200  1
  Ge  Ge2134  1  0.85617933  0.28045333  0.71587867  1
  Ge  Ge2135  1  0.85617933  0.28045333  0.88254533  1
  Ge  Ge2136  1  0.85617933  0.44712000  0.04921200  1
  Ge  Ge2137  1  0.85617933  0.44712000  0.21587867  1
  Ge  Ge2138  1  0.85617933  0.44712000  0.38254533  1
  Ge  Ge2139  1  0.85617933  0.44712000  0.54921200  1
  Ge  Ge2140  1  0.85617933  0.44712000  0.71587867  1
  Ge  Ge2141  1  0.85617933  0.44712000  0.88254533  1
  Ge  Ge2142  1  0.85617933  0.61378667  0.04921200  1
  Ge  Ge2143  1  0.85617933  0.61378667  0.21587867  1
  Ge  Ge2144  1  0.85617933  0.61378667  0.38254533  1
  Ge  Ge2145  1  0.85617933  0.61378667  0.54921200  1
  Ge  Ge2146  1  0.85617933  0.61378667  0.71587867  1
  Ge  Ge2147  1  0.85617933  0.61378667  0.88254533  1
  Ge  Ge2148  1  0.85617933  0.78045333  0.04921200  1
  Ge  Ge2149  1  0.85617933  0.78045333  0.21587867  1
  Ge  Ge2150  1  0.85617933  0.78045333  0.38254533  1
  Ge  Ge2151  1  0.85617933  0.78045333  0.54921200  1
  Ge  Ge2152  1  0.85617933  0.78045333  0.71587867  1
  Ge  Ge2153  1  0.85617933  0.78045333  0.88254533  1
  Ge  Ge2154  1  0.85617933  0.94712000  0.04921200  1
  Ge  Ge2155  1  0.85617933  0.94712000  0.21587867  1
  Ge  Ge2156  1  0.85617933  0.94712000  0.38254533  1
  Ge  Ge2157  1  0.85617933  0.94712000  0.54921200  1
  Ge  Ge2158  1  0.85617933  0.94712000  0.71587867  1
  Ge  Ge2159  1  0.85617933  0.94712000  0.88254533  1
  O  O2160  1  0.00301883  0.09494517  0.11855283  1
  O  O2161  1  0.00301883  0.09494517  0.28521950  1
  O  O2162  1  0.00301883  0.09494517  0.45188617  1
  O  O2163  1  0.00301883  0.09494517  0.61855283  1
  O  O2164  1  0.00301883  0.09494517  0.78521950  1
  O  O2165  1  0.00301883  0.09494517  0.95188617  1
  O  O2166  1  0.00301883  0.26161183  0.11855283  1
  O  O2167  1  0.00301883  0.26161183  0.28521950  1
  O  O2168  1  0.00301883  0.26161183  0.45188617  1
  O  O2169  1  0.00301883  0.26161183  0.61855283  1
  O  O2170  1  0.00301883  0.26161183  0.78521950  1
  O  O2171  1  0.00301883  0.26161183  0.95188617  1
  O  O2172  1  0.00301883  0.42827850  0.11855283  1
  O  O2173  1  0.00301883  0.42827850  0.28521950  1
  O  O2174  1  0.00301883  0.42827850  0.45188617  1
  O  O2175  1  0.00301883  0.42827850  0.61855283  1
  O  O2176  1  0.00301883  0.42827850  0.78521950  1
  O  O2177  1  0.00301883  0.42827850  0.95188617  1
  O  O2178  1  0.00301883  0.59494517  0.11855283  1
  O  O2179  1  0.00301883  0.59494517  0.28521950  1
  O  O2180  1  0.00301883  0.59494517  0.45188617  1
  O  O2181  1  0.00301883  0.59494517  0.61855283  1
  O  O2182  1  0.00301883  0.59494517  0.78521950  1
  O  O2183  1  0.00301883  0.59494517  0.95188617  1
  O  O2184  1  0.00301883  0.76161183  0.11855283  1
  O  O2185  1  0.00301883  0.76161183  0.28521950  1
  O  O2186  1  0.00301883  0.76161183  0.45188617  1
  O  O2187  1  0.00301883  0.76161183  0.61855283  1
  O  O2188  1  0.00301883  0.76161183  0.78521950  1
  O  O2189  1  0.00301883  0.76161183  0.95188617  1
  O  O2190  1  0.00301883  0.92827850  0.11855283  1
  O  O2191  1  0.00301883  0.92827850  0.28521950  1
  O  O2192  1  0.00301883  0.92827850  0.45188617  1
  O  O2193  1  0.00301883  0.92827850  0.61855283  1
  O  O2194  1  0.00301883  0.92827850  0.78521950  1
  O  O2195  1  0.00301883  0.92827850  0.95188617  1
  O  O2196  1  0.16968550  0.09494517  0.11855283  1
  O  O2197  1  0.16968550  0.09494517  0.28521950  1
  O  O2198  1  0.16968550  0.09494517  0.45188617  1
  O  O2199  1  0.16968550  0.09494517  0.61855283  1
  O  O2200  1  0.16968550  0.09494517  0.78521950  1
  O  O2201  1  0.16968550  0.09494517  0.95188617  1
  O  O2202  1  0.16968550  0.26161183  0.11855283  1
  O  O2203  1  0.16968550  0.26161183  0.28521950  1
  O  O2204  1  0.16968550  0.26161183  0.45188617  1
  O  O2205  1  0.16968550  0.26161183  0.61855283  1
  O  O2206  1  0.16968550  0.26161183  0.78521950  1
  O  O2207  1  0.16968550  0.26161183  0.95188617  1
  O  O2208  1  0.16968550  0.42827850  0.11855283  1
  O  O2209  1  0.16968550  0.42827850  0.28521950  1
  O  O2210  1  0.16968550  0.42827850  0.45188617  1
  O  O2211  1  0.16968550  0.42827850  0.61855283  1
  O  O2212  1  0.16968550  0.42827850  0.78521950  1
  O  O2213  1  0.16968550  0.42827850  0.95188617  1
  O  O2214  1  0.16968550  0.59494517  0.11855283  1
  O  O2215  1  0.16968550  0.59494517  0.28521950  1
  O  O2216  1  0.16968550  0.59494517  0.45188617  1
  O  O2217  1  0.16968550  0.59494517  0.61855283  1
  O  O2218  1  0.16968550  0.59494517  0.78521950  1
  O  O2219  1  0.16968550  0.59494517  0.95188617  1
  O  O2220  1  0.16968550  0.76161183  0.11855283  1
  O  O2221  1  0.16968550  0.76161183  0.28521950  1
  O  O2222  1  0.16968550  0.76161183  0.45188617  1
  O  O2223  1  0.16968550  0.76161183  0.61855283  1
  O  O2224  1  0.16968550  0.76161183  0.78521950  1
  O  O2225  1  0.16968550  0.76161183  0.95188617  1
  O  O2226  1  0.16968550  0.92827850  0.11855283  1
  O  O2227  1  0.16968550  0.92827850  0.28521950  1
  O  O2228  1  0.16968550  0.92827850  0.45188617  1
  O  O2229  1  0.16968550  0.92827850  0.61855283  1
  O  O2230  1  0.16968550  0.92827850  0.78521950  1
  O  O2231  1  0.16968550  0.92827850  0.95188617  1
  O  O2232  1  0.33635217  0.09494517  0.11855283  1
  O  O2233  1  0.33635217  0.09494517  0.28521950  1
  O  O2234  1  0.33635217  0.09494517  0.45188617  1
  O  O2235  1  0.33635217  0.09494517  0.61855283  1
  O  O2236  1  0.33635217  0.09494517  0.78521950  1
  O  O2237  1  0.33635217  0.09494517  0.95188617  1
  O  O2238  1  0.33635217  0.26161183  0.11855283  1
  O  O2239  1  0.33635217  0.26161183  0.28521950  1
  O  O2240  1  0.33635217  0.26161183  0.45188617  1
  O  O2241  1  0.33635217  0.26161183  0.61855283  1
  O  O2242  1  0.33635217  0.26161183  0.78521950  1
  O  O2243  1  0.33635217  0.26161183  0.95188617  1
  O  O2244  1  0.33635217  0.42827850  0.11855283  1
  O  O2245  1  0.33635217  0.42827850  0.28521950  1
  O  O2246  1  0.33635217  0.42827850  0.45188617  1
  O  O2247  1  0.33635217  0.42827850  0.61855283  1
  O  O2248  1  0.33635217  0.42827850  0.78521950  1
  O  O2249  1  0.33635217  0.42827850  0.95188617  1
  O  O2250  1  0.33635217  0.59494517  0.11855283  1
  O  O2251  1  0.33635217  0.59494517  0.28521950  1
  O  O2252  1  0.33635217  0.59494517  0.45188617  1
  O  O2253  1  0.33635217  0.59494517  0.61855283  1
  O  O2254  1  0.33635217  0.59494517  0.78521950  1
  O  O2255  1  0.33635217  0.59494517  0.95188617  1
  O  O2256  1  0.33635217  0.76161183  0.11855283  1
  O  O2257  1  0.33635217  0.76161183  0.28521950  1
  O  O2258  1  0.33635217  0.76161183  0.45188617  1
  O  O2259  1  0.33635217  0.76161183  0.61855283  1
  O  O2260  1  0.33635217  0.76161183  0.78521950  1
  O  O2261  1  0.33635217  0.76161183  0.95188617  1
  O  O2262  1  0.33635217  0.92827850  0.11855283  1
  O  O2263  1  0.33635217  0.92827850  0.28521950  1
  O  O2264  1  0.33635217  0.92827850  0.45188617  1
  O  O2265  1  0.33635217  0.92827850  0.61855283  1
  O  O2266  1  0.33635217  0.92827850  0.78521950  1
  O  O2267  1  0.33635217  0.92827850  0.95188617  1
  O  O2268  1  0.50301883  0.09494517  0.11855283  1
  O  O2269  1  0.50301883  0.09494517  0.28521950  1
  O  O2270  1  0.50301883  0.09494517  0.45188617  1
  O  O2271  1  0.50301883  0.09494517  0.61855283  1
  O  O2272  1  0.50301883  0.09494517  0.78521950  1
  O  O2273  1  0.50301883  0.09494517  0.95188617  1
  O  O2274  1  0.50301883  0.26161183  0.11855283  1
  O  O2275  1  0.50301883  0.26161183  0.28521950  1
  O  O2276  1  0.50301883  0.26161183  0.45188617  1
  O  O2277  1  0.50301883  0.26161183  0.61855283  1
  O  O2278  1  0.50301883  0.26161183  0.78521950  1
  O  O2279  1  0.50301883  0.26161183  0.95188617  1
  O  O2280  1  0.50301883  0.42827850  0.11855283  1
  O  O2281  1  0.50301883  0.42827850  0.28521950  1
  O  O2282  1  0.50301883  0.42827850  0.45188617  1
  O  O2283  1  0.50301883  0.42827850  0.61855283  1
  O  O2284  1  0.50301883  0.42827850  0.78521950  1
  O  O2285  1  0.50301883  0.42827850  0.95188617  1
  O  O2286  1  0.50301883  0.59494517  0.11855283  1
  O  O2287  1  0.50301883  0.59494517  0.28521950  1
  O  O2288  1  0.50301883  0.59494517  0.45188617  1
  O  O2289  1  0.50301883  0.59494517  0.61855283  1
  O  O2290  1  0.50301883  0.59494517  0.78521950  1
  O  O2291  1  0.50301883  0.59494517  0.95188617  1
  O  O2292  1  0.50301883  0.76161183  0.11855283  1
  O  O2293  1  0.50301883  0.76161183  0.28521950  1
  O  O2294  1  0.50301883  0.76161183  0.45188617  1
  O  O2295  1  0.50301883  0.76161183  0.61855283  1
  O  O2296  1  0.50301883  0.76161183  0.78521950  1
  O  O2297  1  0.50301883  0.76161183  0.95188617  1
  O  O2298  1  0.50301883  0.92827850  0.11855283  1
  O  O2299  1  0.50301883  0.92827850  0.28521950  1
  O  O2300  1  0.50301883  0.92827850  0.45188617  1
  O  O2301  1  0.50301883  0.92827850  0.61855283  1
  O  O2302  1  0.50301883  0.92827850  0.78521950  1
  O  O2303  1  0.50301883  0.92827850  0.95188617  1
  O  O2304  1  0.66968550  0.09494517  0.11855283  1
  O  O2305  1  0.66968550  0.09494517  0.28521950  1
  O  O2306  1  0.66968550  0.09494517  0.45188617  1
  O  O2307  1  0.66968550  0.09494517  0.61855283  1
  O  O2308  1  0.66968550  0.09494517  0.78521950  1
  O  O2309  1  0.66968550  0.09494517  0.95188617  1
  O  O2310  1  0.66968550  0.26161183  0.11855283  1
  O  O2311  1  0.66968550  0.26161183  0.28521950  1
  O  O2312  1  0.66968550  0.26161183  0.45188617  1
  O  O2313  1  0.66968550  0.26161183  0.61855283  1
  O  O2314  1  0.66968550  0.26161183  0.78521950  1
  O  O2315  1  0.66968550  0.26161183  0.95188617  1
  O  O2316  1  0.66968550  0.42827850  0.11855283  1
  O  O2317  1  0.66968550  0.42827850  0.28521950  1
  O  O2318  1  0.66968550  0.42827850  0.45188617  1
  O  O2319  1  0.66968550  0.42827850  0.61855283  1
  O  O2320  1  0.66968550  0.42827850  0.78521950  1
  O  O2321  1  0.66968550  0.42827850  0.95188617  1
  O  O2322  1  0.66968550  0.59494517  0.11855283  1
  O  O2323  1  0.66968550  0.59494517  0.28521950  1
  O  O2324  1  0.66968550  0.59494517  0.45188617  1
  O  O2325  1  0.66968550  0.59494517  0.61855283  1
  O  O2326  1  0.66968550  0.59494517  0.78521950  1
  O  O2327  1  0.66968550  0.59494517  0.95188617  1
  O  O2328  1  0.66968550  0.76161183  0.11855283  1
  O  O2329  1  0.66968550  0.76161183  0.28521950  1
  O  O2330  1  0.66968550  0.76161183  0.45188617  1
  O  O2331  1  0.66968550  0.76161183  0.61855283  1
  O  O2332  1  0.66968550  0.76161183  0.78521950  1
  O  O2333  1  0.66968550  0.76161183  0.95188617  1
  O  O2334  1  0.66968550  0.92827850  0.11855283  1
  O  O2335  1  0.66968550  0.92827850  0.28521950  1
  O  O2336  1  0.66968550  0.92827850  0.45188617  1
  O  O2337  1  0.66968550  0.92827850  0.61855283  1
  O  O2338  1  0.66968550  0.92827850  0.78521950  1
  O  O2339  1  0.66968550  0.92827850  0.95188617  1
  O  O2340  1  0.83635217  0.09494517  0.11855283  1
  O  O2341  1  0.83635217  0.09494517  0.28521950  1
  O  O2342  1  0.83635217  0.09494517  0.45188617  1
  O  O2343  1  0.83635217  0.09494517  0.61855283  1
  O  O2344  1  0.83635217  0.09494517  0.78521950  1
  O  O2345  1  0.83635217  0.09494517  0.95188617  1
  O  O2346  1  0.83635217  0.26161183  0.11855283  1
  O  O2347  1  0.83635217  0.26161183  0.28521950  1
  O  O2348  1  0.83635217  0.26161183  0.45188617  1
  O  O2349  1  0.83635217  0.26161183  0.61855283  1
  O  O2350  1  0.83635217  0.26161183  0.78521950  1
  O  O2351  1  0.83635217  0.26161183  0.95188617  1
  O  O2352  1  0.83635217  0.42827850  0.11855283  1
  O  O2353  1  0.83635217  0.42827850  0.28521950  1
  O  O2354  1  0.83635217  0.42827850  0.45188617  1
  O  O2355  1  0.83635217  0.42827850  0.61855283  1
  O  O2356  1  0.83635217  0.42827850  0.78521950  1
  O  O2357  1  0.83635217  0.42827850  0.95188617  1
  O  O2358  1  0.83635217  0.59494517  0.11855283  1
  O  O2359  1  0.83635217  0.59494517  0.28521950  1
  O  O2360  1  0.83635217  0.59494517  0.45188617  1
  O  O2361  1  0.83635217  0.59494517  0.61855283  1
  O  O2362  1  0.83635217  0.59494517  0.78521950  1
  O  O2363  1  0.83635217  0.59494517  0.95188617  1
  O  O2364  1  0.83635217  0.76161183  0.11855283  1
  O  O2365  1  0.83635217  0.76161183  0.28521950  1
  O  O2366  1  0.83635217  0.76161183  0.45188617  1
  O  O2367  1  0.83635217  0.76161183  0.61855283  1
  O  O2368  1  0.83635217  0.76161183  0.78521950  1
  O  O2369  1  0.83635217  0.76161183  0.95188617  1
  O  O2370  1  0.83635217  0.92827850  0.11855283  1
  O  O2371  1  0.83635217  0.92827850  0.28521950  1
  O  O2372  1  0.83635217  0.92827850  0.45188617  1
  O  O2373  1  0.83635217  0.92827850  0.61855283  1
  O  O2374  1  0.83635217  0.92827850  0.78521950  1
  O  O2375  1  0.83635217  0.92827850  0.95188617  1
  O  O2376  1  0.16364783  0.07172150  0.04811383  1
  O  O2377  1  0.16364783  0.07172150  0.21478050  1
  O  O2378  1  0.16364783  0.07172150  0.38144717  1
  O  O2379  1  0.16364783  0.07172150  0.54811383  1
  O  O2380  1  0.16364783  0.07172150  0.71478050  1
  O  O2381  1  0.16364783  0.07172150  0.88144717  1
  O  O2382  1  0.16364783  0.23838817  0.04811383  1
  O  O2383  1  0.16364783  0.23838817  0.21478050  1
  O  O2384  1  0.16364783  0.23838817  0.38144717  1
  O  O2385  1  0.16364783  0.23838817  0.54811383  1
  O  O2386  1  0.16364783  0.23838817  0.71478050  1
  O  O2387  1  0.16364783  0.23838817  0.88144717  1
  O  O2388  1  0.16364783  0.40505483  0.04811383  1
  O  O2389  1  0.16364783  0.40505483  0.21478050  1
  O  O2390  1  0.16364783  0.40505483  0.38144717  1
  O  O2391  1  0.16364783  0.40505483  0.54811383  1
  O  O2392  1  0.16364783  0.40505483  0.71478050  1
  O  O2393  1  0.16364783  0.40505483  0.88144717  1
  O  O2394  1  0.16364783  0.57172150  0.04811383  1
  O  O2395  1  0.16364783  0.57172150  0.21478050  1
  O  O2396  1  0.16364783  0.57172150  0.38144717  1
  O  O2397  1  0.16364783  0.57172150  0.54811383  1
  O  O2398  1  0.16364783  0.57172150  0.71478050  1
  O  O2399  1  0.16364783  0.57172150  0.88144717  1
  O  O2400  1  0.16364783  0.73838817  0.04811383  1
  O  O2401  1  0.16364783  0.73838817  0.21478050  1
  O  O2402  1  0.16364783  0.73838817  0.38144717  1
  O  O2403  1  0.16364783  0.73838817  0.54811383  1
  O  O2404  1  0.16364783  0.73838817  0.71478050  1
  O  O2405  1  0.16364783  0.73838817  0.88144717  1
  O  O2406  1  0.16364783  0.90505483  0.04811383  1
  O  O2407  1  0.16364783  0.90505483  0.21478050  1
  O  O2408  1  0.16364783  0.90505483  0.38144717  1
  O  O2409  1  0.16364783  0.90505483  0.54811383  1
  O  O2410  1  0.16364783  0.90505483  0.71478050  1
  O  O2411  1  0.16364783  0.90505483  0.88144717  1
  O  O2412  1  0.33031450  0.07172150  0.04811383  1
  O  O2413  1  0.33031450  0.07172150  0.21478050  1
  O  O2414  1  0.33031450  0.07172150  0.38144717  1
  O  O2415  1  0.33031450  0.07172150  0.54811383  1
  O  O2416  1  0.33031450  0.07172150  0.71478050  1
  O  O2417  1  0.33031450  0.07172150  0.88144717  1
  O  O2418  1  0.33031450  0.23838817  0.04811383  1
  O  O2419  1  0.33031450  0.23838817  0.21478050  1
  O  O2420  1  0.33031450  0.23838817  0.38144717  1
  O  O2421  1  0.33031450  0.23838817  0.54811383  1
  O  O2422  1  0.33031450  0.23838817  0.71478050  1
  O  O2423  1  0.33031450  0.23838817  0.88144717  1
  O  O2424  1  0.33031450  0.40505483  0.04811383  1
  O  O2425  1  0.33031450  0.40505483  0.21478050  1
  O  O2426  1  0.33031450  0.40505483  0.38144717  1
  O  O2427  1  0.33031450  0.40505483  0.54811383  1
  O  O2428  1  0.33031450  0.40505483  0.71478050  1
  O  O2429  1  0.33031450  0.40505483  0.88144717  1
  O  O2430  1  0.33031450  0.57172150  0.04811383  1
  O  O2431  1  0.33031450  0.57172150  0.21478050  1
  O  O2432  1  0.33031450  0.57172150  0.38144717  1
  O  O2433  1  0.33031450  0.57172150  0.54811383  1
  O  O2434  1  0.33031450  0.57172150  0.71478050  1
  O  O2435  1  0.33031450  0.57172150  0.88144717  1
  O  O2436  1  0.33031450  0.73838817  0.04811383  1
  O  O2437  1  0.33031450  0.73838817  0.21478050  1
  O  O2438  1  0.33031450  0.73838817  0.38144717  1
  O  O2439  1  0.33031450  0.73838817  0.54811383  1
  O  O2440  1  0.33031450  0.73838817  0.71478050  1
  O  O2441  1  0.33031450  0.73838817  0.88144717  1
  O  O2442  1  0.33031450  0.90505483  0.04811383  1
  O  O2443  1  0.33031450  0.90505483  0.21478050  1
  O  O2444  1  0.33031450  0.90505483  0.38144717  1
  O  O2445  1  0.33031450  0.90505483  0.54811383  1
  O  O2446  1  0.33031450  0.90505483  0.71478050  1
  O  O2447  1  0.33031450  0.90505483  0.88144717  1
  O  O2448  1  0.49698117  0.07172150  0.04811383  1
  O  O2449  1  0.49698117  0.07172150  0.21478050  1
  O  O2450  1  0.49698117  0.07172150  0.38144717  1
  O  O2451  1  0.49698117  0.07172150  0.54811383  1
  O  O2452  1  0.49698117  0.07172150  0.71478050  1
  O  O2453  1  0.49698117  0.07172150  0.88144717  1
  O  O2454  1  0.49698117  0.23838817  0.04811383  1
  O  O2455  1  0.49698117  0.23838817  0.21478050  1
  O  O2456  1  0.49698117  0.23838817  0.38144717  1
  O  O2457  1  0.49698117  0.23838817  0.54811383  1
  O  O2458  1  0.49698117  0.23838817  0.71478050  1
  O  O2459  1  0.49698117  0.23838817  0.88144717  1
  O  O2460  1  0.49698117  0.40505483  0.04811383  1
  O  O2461  1  0.49698117  0.40505483  0.21478050  1
  O  O2462  1  0.49698117  0.40505483  0.38144717  1
  O  O2463  1  0.49698117  0.40505483  0.54811383  1
  O  O2464  1  0.49698117  0.40505483  0.71478050  1
  O  O2465  1  0.49698117  0.40505483  0.88144717  1
  O  O2466  1  0.49698117  0.57172150  0.04811383  1
  O  O2467  1  0.49698117  0.57172150  0.21478050  1
  O  O2468  1  0.49698117  0.57172150  0.38144717  1
  O  O2469  1  0.49698117  0.57172150  0.54811383  1
  O  O2470  1  0.49698117  0.57172150  0.71478050  1
  O  O2471  1  0.49698117  0.57172150  0.88144717  1
  O  O2472  1  0.49698117  0.73838817  0.04811383  1
  O  O2473  1  0.49698117  0.73838817  0.21478050  1
  O  O2474  1  0.49698117  0.73838817  0.38144717  1
  O  O2475  1  0.49698117  0.73838817  0.54811383  1
  O  O2476  1  0.49698117  0.73838817  0.71478050  1
  O  O2477  1  0.49698117  0.73838817  0.88144717  1
  O  O2478  1  0.49698117  0.90505483  0.04811383  1
  O  O2479  1  0.49698117  0.90505483  0.21478050  1
  O  O2480  1  0.49698117  0.90505483  0.38144717  1
  O  O2481  1  0.49698117  0.90505483  0.54811383  1
  O  O2482  1  0.49698117  0.90505483  0.71478050  1
  O  O2483  1  0.49698117  0.90505483  0.88144717  1
  O  O2484  1  0.66364783  0.07172150  0.04811383  1
  O  O2485  1  0.66364783  0.07172150  0.21478050  1
  O  O2486  1  0.66364783  0.07172150  0.38144717  1
  O  O2487  1  0.66364783  0.07172150  0.54811383  1
  O  O2488  1  0.66364783  0.07172150  0.71478050  1
  O  O2489  1  0.66364783  0.07172150  0.88144717  1
  O  O2490  1  0.66364783  0.23838817  0.04811383  1
  O  O2491  1  0.66364783  0.23838817  0.21478050  1
  O  O2492  1  0.66364783  0.23838817  0.38144717  1
  O  O2493  1  0.66364783  0.23838817  0.54811383  1
  O  O2494  1  0.66364783  0.23838817  0.71478050  1
  O  O2495  1  0.66364783  0.23838817  0.88144717  1
  O  O2496  1  0.66364783  0.40505483  0.04811383  1
  O  O2497  1  0.66364783  0.40505483  0.21478050  1
  O  O2498  1  0.66364783  0.40505483  0.38144717  1
  O  O2499  1  0.66364783  0.40505483  0.54811383  1
  O  O2500  1  0.66364783  0.40505483  0.71478050  1
  O  O2501  1  0.66364783  0.40505483  0.88144717  1
  O  O2502  1  0.66364783  0.57172150  0.04811383  1
  O  O2503  1  0.66364783  0.57172150  0.21478050  1
  O  O2504  1  0.66364783  0.57172150  0.38144717  1
  O  O2505  1  0.66364783  0.57172150  0.54811383  1
  O  O2506  1  0.66364783  0.57172150  0.71478050  1
  O  O2507  1  0.66364783  0.57172150  0.88144717  1
  O  O2508  1  0.66364783  0.73838817  0.04811383  1
  O  O2509  1  0.66364783  0.73838817  0.21478050  1
  O  O2510  1  0.66364783  0.73838817  0.38144717  1
  O  O2511  1  0.66364783  0.73838817  0.54811383  1
  O  O2512  1  0.66364783  0.73838817  0.71478050  1
  O  O2513  1  0.66364783  0.73838817  0.88144717  1
  O  O2514  1  0.66364783  0.90505483  0.04811383  1
  O  O2515  1  0.66364783  0.90505483  0.21478050  1
  O  O2516  1  0.66364783  0.90505483  0.38144717  1
  O  O2517  1  0.66364783  0.90505483  0.54811383  1
  O  O2518  1  0.66364783  0.90505483  0.71478050  1
  O  O2519  1  0.66364783  0.90505483  0.88144717  1
  O  O2520  1  0.83031450  0.07172150  0.04811383  1
  O  O2521  1  0.83031450  0.07172150  0.21478050  1
  O  O2522  1  0.83031450  0.07172150  0.38144717  1
  O  O2523  1  0.83031450  0.07172150  0.54811383  1
  O  O2524  1  0.83031450  0.07172150  0.71478050  1
  O  O2525  1  0.83031450  0.07172150  0.88144717  1
  O  O2526  1  0.83031450  0.23838817  0.04811383  1
  O  O2527  1  0.83031450  0.23838817  0.21478050  1
  O  O2528  1  0.83031450  0.23838817  0.38144717  1
  O  O2529  1  0.83031450  0.23838817  0.54811383  1
  O  O2530  1  0.83031450  0.23838817  0.71478050  1
  O  O2531  1  0.83031450  0.23838817  0.88144717  1
  O  O2532  1  0.83031450  0.40505483  0.04811383  1
  O  O2533  1  0.83031450  0.40505483  0.21478050  1
  O  O2534  1  0.83031450  0.40505483  0.38144717  1
  O  O2535  1  0.83031450  0.40505483  0.54811383  1
  O  O2536  1  0.83031450  0.40505483  0.71478050  1
  O  O2537  1  0.83031450  0.40505483  0.88144717  1
  O  O2538  1  0.83031450  0.57172150  0.04811383  1
  O  O2539  1  0.83031450  0.57172150  0.21478050  1
  O  O2540  1  0.83031450  0.57172150  0.38144717  1
  O  O2541  1  0.83031450  0.57172150  0.54811383  1
  O  O2542  1  0.83031450  0.57172150  0.71478050  1
  O  O2543  1  0.83031450  0.57172150  0.88144717  1
  O  O2544  1  0.83031450  0.73838817  0.04811383  1
  O  O2545  1  0.83031450  0.73838817  0.21478050  1
  O  O2546  1  0.83031450  0.73838817  0.38144717  1
  O  O2547  1  0.83031450  0.73838817  0.54811383  1
  O  O2548  1  0.83031450  0.73838817  0.71478050  1
  O  O2549  1  0.83031450  0.73838817  0.88144717  1
  O  O2550  1  0.83031450  0.90505483  0.04811383  1
  O  O2551  1  0.83031450  0.90505483  0.21478050  1
  O  O2552  1  0.83031450  0.90505483  0.38144717  1
  O  O2553  1  0.83031450  0.90505483  0.54811383  1
  O  O2554  1  0.83031450  0.90505483  0.71478050  1
  O  O2555  1  0.83031450  0.90505483  0.88144717  1
  O  O2556  1  0.99698117  0.07172150  0.04811383  1
  O  O2557  1  0.99698117  0.07172150  0.21478050  1
  O  O2558  1  0.99698117  0.07172150  0.38144717  1
  O  O2559  1  0.99698117  0.07172150  0.54811383  1
  O  O2560  1  0.99698117  0.07172150  0.71478050  1
  O  O2561  1  0.99698117  0.07172150  0.88144717  1
  O  O2562  1  0.99698117  0.23838817  0.04811383  1
  O  O2563  1  0.99698117  0.23838817  0.21478050  1
  O  O2564  1  0.99698117  0.23838817  0.38144717  1
  O  O2565  1  0.99698117  0.23838817  0.54811383  1
  O  O2566  1  0.99698117  0.23838817  0.71478050  1
  O  O2567  1  0.99698117  0.23838817  0.88144717  1
  O  O2568  1  0.99698117  0.40505483  0.04811383  1
  O  O2569  1  0.99698117  0.40505483  0.21478050  1
  O  O2570  1  0.99698117  0.40505483  0.38144717  1
  O  O2571  1  0.99698117  0.40505483  0.54811383  1
  O  O2572  1  0.99698117  0.40505483  0.71478050  1
  O  O2573  1  0.99698117  0.40505483  0.88144717  1
  O  O2574  1  0.99698117  0.57172150  0.04811383  1
  O  O2575  1  0.99698117  0.57172150  0.21478050  1
  O  O2576  1  0.99698117  0.57172150  0.38144717  1
  O  O2577  1  0.99698117  0.57172150  0.54811383  1
  O  O2578  1  0.99698117  0.57172150  0.71478050  1
  O  O2579  1  0.99698117  0.57172150  0.88144717  1
  O  O2580  1  0.99698117  0.73838817  0.04811383  1
  O  O2581  1  0.99698117  0.73838817  0.21478050  1
  O  O2582  1  0.99698117  0.73838817  0.38144717  1
  O  O2583  1  0.99698117  0.73838817  0.54811383  1
  O  O2584  1  0.99698117  0.73838817  0.71478050  1
  O  O2585  1  0.99698117  0.73838817  0.88144717  1
  O  O2586  1  0.99698117  0.90505483  0.04811383  1
  O  O2587  1  0.99698117  0.90505483  0.21478050  1
  O  O2588  1  0.99698117  0.90505483  0.38144717  1
  O  O2589  1  0.99698117  0.90505483  0.54811383  1
  O  O2590  1  0.99698117  0.90505483  0.71478050  1
  O  O2591  1  0.99698117  0.90505483  0.88144717  1
  O  O2592  1  0.15057650  0.14372250  0.06643667  1
  O  O2593  1  0.15057650  0.14372250  0.23310333  1
  O  O2594  1  0.15057650  0.14372250  0.39977000  1
  O  O2595  1  0.15057650  0.14372250  0.56643667  1
  O  O2596  1  0.15057650  0.14372250  0.73310333  1
  O  O2597  1  0.15057650  0.14372250  0.89977000  1
  O  O2598  1  0.15057650  0.31038917  0.06643667  1
  O  O2599  1  0.15057650  0.31038917  0.23310333  1
  O  O2600  1  0.15057650  0.31038917  0.39977000  1
  O  O2601  1  0.15057650  0.31038917  0.56643667  1
  O  O2602  1  0.15057650  0.31038917  0.73310333  1
  O  O2603  1  0.15057650  0.31038917  0.89977000  1
  O  O2604  1  0.15057650  0.47705583  0.06643667  1
  O  O2605  1  0.15057650  0.47705583  0.23310333  1
  O  O2606  1  0.15057650  0.47705583  0.39977000  1
  O  O2607  1  0.15057650  0.47705583  0.56643667  1
  O  O2608  1  0.15057650  0.47705583  0.73310333  1
  O  O2609  1  0.15057650  0.47705583  0.89977000  1
  O  O2610  1  0.15057650  0.64372250  0.06643667  1
  O  O2611  1  0.15057650  0.64372250  0.23310333  1
  O  O2612  1  0.15057650  0.64372250  0.39977000  1
  O  O2613  1  0.15057650  0.64372250  0.56643667  1
  O  O2614  1  0.15057650  0.64372250  0.73310333  1
  O  O2615  1  0.15057650  0.64372250  0.89977000  1
  O  O2616  1  0.15057650  0.81038917  0.06643667  1
  O  O2617  1  0.15057650  0.81038917  0.23310333  1
  O  O2618  1  0.15057650  0.81038917  0.39977000  1
  O  O2619  1  0.15057650  0.81038917  0.56643667  1
  O  O2620  1  0.15057650  0.81038917  0.73310333  1
  O  O2621  1  0.15057650  0.81038917  0.89977000  1
  O  O2622  1  0.15057650  0.97705583  0.06643667  1
  O  O2623  1  0.15057650  0.97705583  0.23310333  1
  O  O2624  1  0.15057650  0.97705583  0.39977000  1
  O  O2625  1  0.15057650  0.97705583  0.56643667  1
  O  O2626  1  0.15057650  0.97705583  0.73310333  1
  O  O2627  1  0.15057650  0.97705583  0.89977000  1
  O  O2628  1  0.31724317  0.14372250  0.06643667  1
  O  O2629  1  0.31724317  0.14372250  0.23310333  1
  O  O2630  1  0.31724317  0.14372250  0.39977000  1
  O  O2631  1  0.31724317  0.14372250  0.56643667  1
  O  O2632  1  0.31724317  0.14372250  0.73310333  1
  O  O2633  1  0.31724317  0.14372250  0.89977000  1
  O  O2634  1  0.31724317  0.31038917  0.06643667  1
  O  O2635  1  0.31724317  0.31038917  0.23310333  1
  O  O2636  1  0.31724317  0.31038917  0.39977000  1
  O  O2637  1  0.31724317  0.31038917  0.56643667  1
  O  O2638  1  0.31724317  0.31038917  0.73310333  1
  O  O2639  1  0.31724317  0.31038917  0.89977000  1
  O  O2640  1  0.31724317  0.47705583  0.06643667  1
  O  O2641  1  0.31724317  0.47705583  0.23310333  1
  O  O2642  1  0.31724317  0.47705583  0.39977000  1
  O  O2643  1  0.31724317  0.47705583  0.56643667  1
  O  O2644  1  0.31724317  0.47705583  0.73310333  1
  O  O2645  1  0.31724317  0.47705583  0.89977000  1
  O  O2646  1  0.31724317  0.64372250  0.06643667  1
  O  O2647  1  0.31724317  0.64372250  0.23310333  1
  O  O2648  1  0.31724317  0.64372250  0.39977000  1
  O  O2649  1  0.31724317  0.64372250  0.56643667  1
  O  O2650  1  0.31724317  0.64372250  0.73310333  1
  O  O2651  1  0.31724317  0.64372250  0.89977000  1
  O  O2652  1  0.31724317  0.81038917  0.06643667  1
  O  O2653  1  0.31724317  0.81038917  0.23310333  1
  O  O2654  1  0.31724317  0.81038917  0.39977000  1
  O  O2655  1  0.31724317  0.81038917  0.56643667  1
  O  O2656  1  0.31724317  0.81038917  0.73310333  1
  O  O2657  1  0.31724317  0.81038917  0.89977000  1
  O  O2658  1  0.31724317  0.97705583  0.06643667  1
  O  O2659  1  0.31724317  0.97705583  0.23310333  1
  O  O2660  1  0.31724317  0.97705583  0.39977000  1
  O  O2661  1  0.31724317  0.97705583  0.56643667  1
  O  O2662  1  0.31724317  0.97705583  0.73310333  1
  O  O2663  1  0.31724317  0.97705583  0.89977000  1
  O  O2664  1  0.48390983  0.14372250  0.06643667  1
  O  O2665  1  0.48390983  0.14372250  0.23310333  1
  O  O2666  1  0.48390983  0.14372250  0.39977000  1
  O  O2667  1  0.48390983  0.14372250  0.56643667  1
  O  O2668  1  0.48390983  0.14372250  0.73310333  1
  O  O2669  1  0.48390983  0.14372250  0.89977000  1
  O  O2670  1  0.48390983  0.31038917  0.06643667  1
  O  O2671  1  0.48390983  0.31038917  0.23310333  1
  O  O2672  1  0.48390983  0.31038917  0.39977000  1
  O  O2673  1  0.48390983  0.31038917  0.56643667  1
  O  O2674  1  0.48390983  0.31038917  0.73310333  1
  O  O2675  1  0.48390983  0.31038917  0.89977000  1
  O  O2676  1  0.48390983  0.47705583  0.06643667  1
  O  O2677  1  0.48390983  0.47705583  0.23310333  1
  O  O2678  1  0.48390983  0.47705583  0.39977000  1
  O  O2679  1  0.48390983  0.47705583  0.56643667  1
  O  O2680  1  0.48390983  0.47705583  0.73310333  1
  O  O2681  1  0.48390983  0.47705583  0.89977000  1
  O  O2682  1  0.48390983  0.64372250  0.06643667  1
  O  O2683  1  0.48390983  0.64372250  0.23310333  1
  O  O2684  1  0.48390983  0.64372250  0.39977000  1
  O  O2685  1  0.48390983  0.64372250  0.56643667  1
  O  O2686  1  0.48390983  0.64372250  0.73310333  1
  O  O2687  1  0.48390983  0.64372250  0.89977000  1
  O  O2688  1  0.48390983  0.81038917  0.06643667  1
  O  O2689  1  0.48390983  0.81038917  0.23310333  1
  O  O2690  1  0.48390983  0.81038917  0.39977000  1
  O  O2691  1  0.48390983  0.81038917  0.56643667  1
  O  O2692  1  0.48390983  0.81038917  0.73310333  1
  O  O2693  1  0.48390983  0.81038917  0.89977000  1
  O  O2694  1  0.48390983  0.97705583  0.06643667  1
  O  O2695  1  0.48390983  0.97705583  0.23310333  1
  O  O2696  1  0.48390983  0.97705583  0.39977000  1
  O  O2697  1  0.48390983  0.97705583  0.56643667  1
  O  O2698  1  0.48390983  0.97705583  0.73310333  1
  O  O2699  1  0.48390983  0.97705583  0.89977000  1
  O  O2700  1  0.65057650  0.14372250  0.06643667  1
  O  O2701  1  0.65057650  0.14372250  0.23310333  1
  O  O2702  1  0.65057650  0.14372250  0.39977000  1
  O  O2703  1  0.65057650  0.14372250  0.56643667  1
  O  O2704  1  0.65057650  0.14372250  0.73310333  1
  O  O2705  1  0.65057650  0.14372250  0.89977000  1
  O  O2706  1  0.65057650  0.31038917  0.06643667  1
  O  O2707  1  0.65057650  0.31038917  0.23310333  1
  O  O2708  1  0.65057650  0.31038917  0.39977000  1
  O  O2709  1  0.65057650  0.31038917  0.56643667  1
  O  O2710  1  0.65057650  0.31038917  0.73310333  1
  O  O2711  1  0.65057650  0.31038917  0.89977000  1
  O  O2712  1  0.65057650  0.47705583  0.06643667  1
  O  O2713  1  0.65057650  0.47705583  0.23310333  1
  O  O2714  1  0.65057650  0.47705583  0.39977000  1
  O  O2715  1  0.65057650  0.47705583  0.56643667  1
  O  O2716  1  0.65057650  0.47705583  0.73310333  1
  O  O2717  1  0.65057650  0.47705583  0.89977000  1
  O  O2718  1  0.65057650  0.64372250  0.06643667  1
  O  O2719  1  0.65057650  0.64372250  0.23310333  1
  O  O2720  1  0.65057650  0.64372250  0.39977000  1
  O  O2721  1  0.65057650  0.64372250  0.56643667  1
  O  O2722  1  0.65057650  0.64372250  0.73310333  1
  O  O2723  1  0.65057650  0.64372250  0.89977000  1
  O  O2724  1  0.65057650  0.81038917  0.06643667  1
  O  O2725  1  0.65057650  0.81038917  0.23310333  1
  O  O2726  1  0.65057650  0.81038917  0.39977000  1
  O  O2727  1  0.65057650  0.81038917  0.56643667  1
  O  O2728  1  0.65057650  0.81038917  0.73310333  1
  O  O2729  1  0.65057650  0.81038917  0.89977000  1
  O  O2730  1  0.65057650  0.97705583  0.06643667  1
  O  O2731  1  0.65057650  0.97705583  0.23310333  1
  O  O2732  1  0.65057650  0.97705583  0.39977000  1
  O  O2733  1  0.65057650  0.97705583  0.56643667  1
  O  O2734  1  0.65057650  0.97705583  0.73310333  1
  O  O2735  1  0.65057650  0.97705583  0.89977000  1
  O  O2736  1  0.81724317  0.14372250  0.06643667  1
  O  O2737  1  0.81724317  0.14372250  0.23310333  1
  O  O2738  1  0.81724317  0.14372250  0.39977000  1
  O  O2739  1  0.81724317  0.14372250  0.56643667  1
  O  O2740  1  0.81724317  0.14372250  0.73310333  1
  O  O2741  1  0.81724317  0.14372250  0.89977000  1
  O  O2742  1  0.81724317  0.31038917  0.06643667  1
  O  O2743  1  0.81724317  0.31038917  0.23310333  1
  O  O2744  1  0.81724317  0.31038917  0.39977000  1
  O  O2745  1  0.81724317  0.31038917  0.56643667  1
  O  O2746  1  0.81724317  0.31038917  0.73310333  1
  O  O2747  1  0.81724317  0.31038917  0.89977000  1
  O  O2748  1  0.81724317  0.47705583  0.06643667  1
  O  O2749  1  0.81724317  0.47705583  0.23310333  1
  O  O2750  1  0.81724317  0.47705583  0.39977000  1
  O  O2751  1  0.81724317  0.47705583  0.56643667  1
  O  O2752  1  0.81724317  0.47705583  0.73310333  1
  O  O2753  1  0.81724317  0.47705583  0.89977000  1
  O  O2754  1  0.81724317  0.64372250  0.06643667  1
  O  O2755  1  0.81724317  0.64372250  0.23310333  1
  O  O2756  1  0.81724317  0.64372250  0.39977000  1
  O  O2757  1  0.81724317  0.64372250  0.56643667  1
  O  O2758  1  0.81724317  0.64372250  0.73310333  1
  O  O2759  1  0.81724317  0.64372250  0.89977000  1
  O  O2760  1  0.81724317  0.81038917  0.06643667  1
  O  O2761  1  0.81724317  0.81038917  0.23310333  1
  O  O2762  1  0.81724317  0.81038917  0.39977000  1
  O  O2763  1  0.81724317  0.81038917  0.56643667  1
  O  O2764  1  0.81724317  0.81038917  0.73310333  1
  O  O2765  1  0.81724317  0.81038917  0.89977000  1
  O  O2766  1  0.81724317  0.97705583  0.06643667  1
  O  O2767  1  0.81724317  0.97705583  0.23310333  1
  O  O2768  1  0.81724317  0.97705583  0.39977000  1
  O  O2769  1  0.81724317  0.97705583  0.56643667  1
  O  O2770  1  0.81724317  0.97705583  0.73310333  1
  O  O2771  1  0.81724317  0.97705583  0.89977000  1
  O  O2772  1  0.98390983  0.14372250  0.06643667  1
  O  O2773  1  0.98390983  0.14372250  0.23310333  1
  O  O2774  1  0.98390983  0.14372250  0.39977000  1
  O  O2775  1  0.98390983  0.14372250  0.56643667  1
  O  O2776  1  0.98390983  0.14372250  0.73310333  1
  O  O2777  1  0.98390983  0.14372250  0.89977000  1
  O  O2778  1  0.98390983  0.31038917  0.06643667  1
  O  O2779  1  0.98390983  0.31038917  0.23310333  1
  O  O2780  1  0.98390983  0.31038917  0.39977000  1
  O  O2781  1  0.98390983  0.31038917  0.56643667  1
  O  O2782  1  0.98390983  0.31038917  0.73310333  1
  O  O2783  1  0.98390983  0.31038917  0.89977000  1
  O  O2784  1  0.98390983  0.47705583  0.06643667  1
  O  O2785  1  0.98390983  0.47705583  0.23310333  1
  O  O2786  1  0.98390983  0.47705583  0.39977000  1
  O  O2787  1  0.98390983  0.47705583  0.56643667  1
  O  O2788  1  0.98390983  0.47705583  0.73310333  1
  O  O2789  1  0.98390983  0.47705583  0.89977000  1
  O  O2790  1  0.98390983  0.64372250  0.06643667  1
  O  O2791  1  0.98390983  0.64372250  0.23310333  1
  O  O2792  1  0.98390983  0.64372250  0.39977000  1
  O  O2793  1  0.98390983  0.64372250  0.56643667  1
  O  O2794  1  0.98390983  0.64372250  0.73310333  1
  O  O2795  1  0.98390983  0.64372250  0.89977000  1
  O  O2796  1  0.98390983  0.81038917  0.06643667  1
  O  O2797  1  0.98390983  0.81038917  0.23310333  1
  O  O2798  1  0.98390983  0.81038917  0.39977000  1
  O  O2799  1  0.98390983  0.81038917  0.56643667  1
  O  O2800  1  0.98390983  0.81038917  0.73310333  1
  O  O2801  1  0.98390983  0.81038917  0.89977000  1
  O  O2802  1  0.98390983  0.97705583  0.06643667  1
  O  O2803  1  0.98390983  0.97705583  0.23310333  1
  O  O2804  1  0.98390983  0.97705583  0.39977000  1
  O  O2805  1  0.98390983  0.97705583  0.56643667  1
  O  O2806  1  0.98390983  0.97705583  0.73310333  1
  O  O2807  1  0.98390983  0.97705583  0.89977000  1
  O  O2808  1  0.01609017  0.02294417  0.10023000  1
  O  O2809  1  0.01609017  0.02294417  0.26689667  1
  O  O2810  1  0.01609017  0.02294417  0.43356333  1
  O  O2811  1  0.01609017  0.02294417  0.60023000  1
  O  O2812  1  0.01609017  0.02294417  0.76689667  1
  O  O2813  1  0.01609017  0.02294417  0.93356333  1
  O  O2814  1  0.01609017  0.18961083  0.10023000  1
  O  O2815  1  0.01609017  0.18961083  0.26689667  1
  O  O2816  1  0.01609017  0.18961083  0.43356333  1
  O  O2817  1  0.01609017  0.18961083  0.60023000  1
  O  O2818  1  0.01609017  0.18961083  0.76689667  1
  O  O2819  1  0.01609017  0.18961083  0.93356333  1
  O  O2820  1  0.01609017  0.35627750  0.10023000  1
  O  O2821  1  0.01609017  0.35627750  0.26689667  1
  O  O2822  1  0.01609017  0.35627750  0.43356333  1
  O  O2823  1  0.01609017  0.35627750  0.60023000  1
  O  O2824  1  0.01609017  0.35627750  0.76689667  1
  O  O2825  1  0.01609017  0.35627750  0.93356333  1
  O  O2826  1  0.01609017  0.52294417  0.10023000  1
  O  O2827  1  0.01609017  0.52294417  0.26689667  1
  O  O2828  1  0.01609017  0.52294417  0.43356333  1
  O  O2829  1  0.01609017  0.52294417  0.60023000  1
  O  O2830  1  0.01609017  0.52294417  0.76689667  1
  O  O2831  1  0.01609017  0.52294417  0.93356333  1
  O  O2832  1  0.01609017  0.68961083  0.10023000  1
  O  O2833  1  0.01609017  0.68961083  0.26689667  1
  O  O2834  1  0.01609017  0.68961083  0.43356333  1
  O  O2835  1  0.01609017  0.68961083  0.60023000  1
  O  O2836  1  0.01609017  0.68961083  0.76689667  1
  O  O2837  1  0.01609017  0.68961083  0.93356333  1
  O  O2838  1  0.01609017  0.85627750  0.10023000  1
  O  O2839  1  0.01609017  0.85627750  0.26689667  1
  O  O2840  1  0.01609017  0.85627750  0.43356333  1
  O  O2841  1  0.01609017  0.85627750  0.60023000  1
  O  O2842  1  0.01609017  0.85627750  0.76689667  1
  O  O2843  1  0.01609017  0.85627750  0.93356333  1
  O  O2844  1  0.18275683  0.02294417  0.10023000  1
  O  O2845  1  0.18275683  0.02294417  0.26689667  1
  O  O2846  1  0.18275683  0.02294417  0.43356333  1
  O  O2847  1  0.18275683  0.02294417  0.60023000  1
  O  O2848  1  0.18275683  0.02294417  0.76689667  1
  O  O2849  1  0.18275683  0.02294417  0.93356333  1
  O  O2850  1  0.18275683  0.18961083  0.10023000  1
  O  O2851  1  0.18275683  0.18961083  0.26689667  1
  O  O2852  1  0.18275683  0.18961083  0.43356333  1
  O  O2853  1  0.18275683  0.18961083  0.60023000  1
  O  O2854  1  0.18275683  0.18961083  0.76689667  1
  O  O2855  1  0.18275683  0.18961083  0.93356333  1
  O  O2856  1  0.18275683  0.35627750  0.10023000  1
  O  O2857  1  0.18275683  0.35627750  0.26689667  1
  O  O2858  1  0.18275683  0.35627750  0.43356333  1
  O  O2859  1  0.18275683  0.35627750  0.60023000  1
  O  O2860  1  0.18275683  0.35627750  0.76689667  1
  O  O2861  1  0.18275683  0.35627750  0.93356333  1
  O  O2862  1  0.18275683  0.52294417  0.10023000  1
  O  O2863  1  0.18275683  0.52294417  0.26689667  1
  O  O2864  1  0.18275683  0.52294417  0.43356333  1
  O  O2865  1  0.18275683  0.52294417  0.60023000  1
  O  O2866  1  0.18275683  0.52294417  0.76689667  1
  O  O2867  1  0.18275683  0.52294417  0.93356333  1
  O  O2868  1  0.18275683  0.68961083  0.10023000  1
  O  O2869  1  0.18275683  0.68961083  0.26689667  1
  O  O2870  1  0.18275683  0.68961083  0.43356333  1
  O  O2871  1  0.18275683  0.68961083  0.60023000  1
  O  O2872  1  0.18275683  0.68961083  0.76689667  1
  O  O2873  1  0.18275683  0.68961083  0.93356333  1
  O  O2874  1  0.18275683  0.85627750  0.10023000  1
  O  O2875  1  0.18275683  0.85627750  0.26689667  1
  O  O2876  1  0.18275683  0.85627750  0.43356333  1
  O  O2877  1  0.18275683  0.85627750  0.60023000  1
  O  O2878  1  0.18275683  0.85627750  0.76689667  1
  O  O2879  1  0.18275683  0.85627750  0.93356333  1
  O  O2880  1  0.34942350  0.02294417  0.10023000  1
  O  O2881  1  0.34942350  0.02294417  0.26689667  1
  O  O2882  1  0.34942350  0.02294417  0.43356333  1
  O  O2883  1  0.34942350  0.02294417  0.60023000  1
  O  O2884  1  0.34942350  0.02294417  0.76689667  1
  O  O2885  1  0.34942350  0.02294417  0.93356333  1
  O  O2886  1  0.34942350  0.18961083  0.10023000  1
  O  O2887  1  0.34942350  0.18961083  0.26689667  1
  O  O2888  1  0.34942350  0.18961083  0.43356333  1
  O  O2889  1  0.34942350  0.18961083  0.60023000  1
  O  O2890  1  0.34942350  0.18961083  0.76689667  1
  O  O2891  1  0.34942350  0.18961083  0.93356333  1
  O  O2892  1  0.34942350  0.35627750  0.10023000  1
  O  O2893  1  0.34942350  0.35627750  0.26689667  1
  O  O2894  1  0.34942350  0.35627750  0.43356333  1
  O  O2895  1  0.34942350  0.35627750  0.60023000  1
  O  O2896  1  0.34942350  0.35627750  0.76689667  1
  O  O2897  1  0.34942350  0.35627750  0.93356333  1
  O  O2898  1  0.34942350  0.52294417  0.10023000  1
  O  O2899  1  0.34942350  0.52294417  0.26689667  1
  O  O2900  1  0.34942350  0.52294417  0.43356333  1
  O  O2901  1  0.34942350  0.52294417  0.60023000  1
  O  O2902  1  0.34942350  0.52294417  0.76689667  1
  O  O2903  1  0.34942350  0.52294417  0.93356333  1
  O  O2904  1  0.34942350  0.68961083  0.10023000  1
  O  O2905  1  0.34942350  0.68961083  0.26689667  1
  O  O2906  1  0.34942350  0.68961083  0.43356333  1
  O  O2907  1  0.34942350  0.68961083  0.60023000  1
  O  O2908  1  0.34942350  0.68961083  0.76689667  1
  O  O2909  1  0.34942350  0.68961083  0.93356333  1
  O  O2910  1  0.34942350  0.85627750  0.10023000  1
  O  O2911  1  0.34942350  0.85627750  0.26689667  1
  O  O2912  1  0.34942350  0.85627750  0.43356333  1
  O  O2913  1  0.34942350  0.85627750  0.60023000  1
  O  O2914  1  0.34942350  0.85627750  0.76689667  1
  O  O2915  1  0.34942350  0.85627750  0.93356333  1
  O  O2916  1  0.51609017  0.02294417  0.10023000  1
  O  O2917  1  0.51609017  0.02294417  0.26689667  1
  O  O2918  1  0.51609017  0.02294417  0.43356333  1
  O  O2919  1  0.51609017  0.02294417  0.60023000  1
  O  O2920  1  0.51609017  0.02294417  0.76689667  1
  O  O2921  1  0.51609017  0.02294417  0.93356333  1
  O  O2922  1  0.51609017  0.18961083  0.10023000  1
  O  O2923  1  0.51609017  0.18961083  0.26689667  1
  O  O2924  1  0.51609017  0.18961083  0.43356333  1
  O  O2925  1  0.51609017  0.18961083  0.60023000  1
  O  O2926  1  0.51609017  0.18961083  0.76689667  1
  O  O2927  1  0.51609017  0.18961083  0.93356333  1
  O  O2928  1  0.51609017  0.35627750  0.10023000  1
  O  O2929  1  0.51609017  0.35627750  0.26689667  1
  O  O2930  1  0.51609017  0.35627750  0.43356333  1
  O  O2931  1  0.51609017  0.35627750  0.60023000  1
  O  O2932  1  0.51609017  0.35627750  0.76689667  1
  O  O2933  1  0.51609017  0.35627750  0.93356333  1
  O  O2934  1  0.51609017  0.52294417  0.10023000  1
  O  O2935  1  0.51609017  0.52294417  0.26689667  1
  O  O2936  1  0.51609017  0.52294417  0.43356333  1
  O  O2937  1  0.51609017  0.52294417  0.60023000  1
  O  O2938  1  0.51609017  0.52294417  0.76689667  1
  O  O2939  1  0.51609017  0.52294417  0.93356333  1
  O  O2940  1  0.51609017  0.68961083  0.10023000  1
  O  O2941  1  0.51609017  0.68961083  0.26689667  1
  O  O2942  1  0.51609017  0.68961083  0.43356333  1
  O  O2943  1  0.51609017  0.68961083  0.60023000  1
  O  O2944  1  0.51609017  0.68961083  0.76689667  1
  O  O2945  1  0.51609017  0.68961083  0.93356333  1
  O  O2946  1  0.51609017  0.85627750  0.10023000  1
  O  O2947  1  0.51609017  0.85627750  0.26689667  1
  O  O2948  1  0.51609017  0.85627750  0.43356333  1
  O  O2949  1  0.51609017  0.85627750  0.60023000  1
  O  O2950  1  0.51609017  0.85627750  0.76689667  1
  O  O2951  1  0.51609017  0.85627750  0.93356333  1
  O  O2952  1  0.68275683  0.02294417  0.10023000  1
  O  O2953  1  0.68275683  0.02294417  0.26689667  1
  O  O2954  1  0.68275683  0.02294417  0.43356333  1
  O  O2955  1  0.68275683  0.02294417  0.60023000  1
  O  O2956  1  0.68275683  0.02294417  0.76689667  1
  O  O2957  1  0.68275683  0.02294417  0.93356333  1
  O  O2958  1  0.68275683  0.18961083  0.10023000  1
  O  O2959  1  0.68275683  0.18961083  0.26689667  1
  O  O2960  1  0.68275683  0.18961083  0.43356333  1
  O  O2961  1  0.68275683  0.18961083  0.60023000  1
  O  O2962  1  0.68275683  0.18961083  0.76689667  1
  O  O2963  1  0.68275683  0.18961083  0.93356333  1
  O  O2964  1  0.68275683  0.35627750  0.10023000  1
  O  O2965  1  0.68275683  0.35627750  0.26689667  1
  O  O2966  1  0.68275683  0.35627750  0.43356333  1
  O  O2967  1  0.68275683  0.35627750  0.60023000  1
  O  O2968  1  0.68275683  0.35627750  0.76689667  1
  O  O2969  1  0.68275683  0.35627750  0.93356333  1
  O  O2970  1  0.68275683  0.52294417  0.10023000  1
  O  O2971  1  0.68275683  0.52294417  0.26689667  1
  O  O2972  1  0.68275683  0.52294417  0.43356333  1
  O  O2973  1  0.68275683  0.52294417  0.60023000  1
  O  O2974  1  0.68275683  0.52294417  0.76689667  1
  O  O2975  1  0.68275683  0.52294417  0.93356333  1
  O  O2976  1  0.68275683  0.68961083  0.10023000  1
  O  O2977  1  0.68275683  0.68961083  0.26689667  1
  O  O2978  1  0.68275683  0.68961083  0.43356333  1
  O  O2979  1  0.68275683  0.68961083  0.60023000  1
  O  O2980  1  0.68275683  0.68961083  0.76689667  1
  O  O2981  1  0.68275683  0.68961083  0.93356333  1
  O  O2982  1  0.68275683  0.85627750  0.10023000  1
  O  O2983  1  0.68275683  0.85627750  0.26689667  1
  O  O2984  1  0.68275683  0.85627750  0.43356333  1
  O  O2985  1  0.68275683  0.85627750  0.60023000  1
  O  O2986  1  0.68275683  0.85627750  0.76689667  1
  O  O2987  1  0.68275683  0.85627750  0.93356333  1
  O  O2988  1  0.84942350  0.02294417  0.10023000  1
  O  O2989  1  0.84942350  0.02294417  0.26689667  1
  O  O2990  1  0.84942350  0.02294417  0.43356333  1
  O  O2991  1  0.84942350  0.02294417  0.60023000  1
  O  O2992  1  0.84942350  0.02294417  0.76689667  1
  O  O2993  1  0.84942350  0.02294417  0.93356333  1
  O  O2994  1  0.84942350  0.18961083  0.10023000  1
  O  O2995  1  0.84942350  0.18961083  0.26689667  1
  O  O2996  1  0.84942350  0.18961083  0.43356333  1
  O  O2997  1  0.84942350  0.18961083  0.60023000  1
  O  O2998  1  0.84942350  0.18961083  0.76689667  1
  O  O2999  1  0.84942350  0.18961083  0.93356333  1
  O  O3000  1  0.84942350  0.35627750  0.10023000  1
  O  O3001  1  0.84942350  0.35627750  0.26689667  1
  O  O3002  1  0.84942350  0.35627750  0.43356333  1
  O  O3003  1  0.84942350  0.35627750  0.60023000  1
  O  O3004  1  0.84942350  0.35627750  0.76689667  1
  O  O3005  1  0.84942350  0.35627750  0.93356333  1
  O  O3006  1  0.84942350  0.52294417  0.10023000  1
  O  O3007  1  0.84942350  0.52294417  0.26689667  1
  O  O3008  1  0.84942350  0.52294417  0.43356333  1
  O  O3009  1  0.84942350  0.52294417  0.60023000  1
  O  O3010  1  0.84942350  0.52294417  0.76689667  1
  O  O3011  1  0.84942350  0.52294417  0.93356333  1
  O  O3012  1  0.84942350  0.68961083  0.10023000  1
  O  O3013  1  0.84942350  0.68961083  0.26689667  1
  O  O3014  1  0.84942350  0.68961083  0.43356333  1
  O  O3015  1  0.84942350  0.68961083  0.60023000  1
  O  O3016  1  0.84942350  0.68961083  0.76689667  1
  O  O3017  1  0.84942350  0.68961083  0.93356333  1
  O  O3018  1  0.84942350  0.85627750  0.10023000  1
  O  O3019  1  0.84942350  0.85627750  0.26689667  1
  O  O3020  1  0.84942350  0.85627750  0.43356333  1
  O  O3021  1  0.84942350  0.85627750  0.60023000  1
  O  O3022  1  0.84942350  0.85627750  0.76689667  1
  O  O3023  1  0.84942350  0.85627750  0.93356333  1
  O  O3024  1  0.12246500  0.03317633  0.14638150  1
  O  O3025  1  0.12246500  0.03317633  0.31304817  1
  O  O3026  1  0.12246500  0.03317633  0.47971483  1
  O  O3027  1  0.12246500  0.03317633  0.64638150  1
  O  O3028  1  0.12246500  0.03317633  0.81304817  1
  O  O3029  1  0.12246500  0.03317633  0.97971483  1
  O  O3030  1  0.12246500  0.19984300  0.14638150  1
  O  O3031  1  0.12246500  0.19984300  0.31304817  1
  O  O3032  1  0.12246500  0.19984300  0.47971483  1
  O  O3033  1  0.12246500  0.19984300  0.64638150  1
  O  O3034  1  0.12246500  0.19984300  0.81304817  1
  O  O3035  1  0.12246500  0.19984300  0.97971483  1
  O  O3036  1  0.12246500  0.36650967  0.14638150  1
  O  O3037  1  0.12246500  0.36650967  0.31304817  1
  O  O3038  1  0.12246500  0.36650967  0.47971483  1
  O  O3039  1  0.12246500  0.36650967  0.64638150  1
  O  O3040  1  0.12246500  0.36650967  0.81304817  1
  O  O3041  1  0.12246500  0.36650967  0.97971483  1
  O  O3042  1  0.12246500  0.53317633  0.14638150  1
  O  O3043  1  0.12246500  0.53317633  0.31304817  1
  O  O3044  1  0.12246500  0.53317633  0.47971483  1
  O  O3045  1  0.12246500  0.53317633  0.64638150  1
  O  O3046  1  0.12246500  0.53317633  0.81304817  1
  O  O3047  1  0.12246500  0.53317633  0.97971483  1
  O  O3048  1  0.12246500  0.69984300  0.14638150  1
  O  O3049  1  0.12246500  0.69984300  0.31304817  1
  O  O3050  1  0.12246500  0.69984300  0.47971483  1
  O  O3051  1  0.12246500  0.69984300  0.64638150  1
  O  O3052  1  0.12246500  0.69984300  0.81304817  1
  O  O3053  1  0.12246500  0.69984300  0.97971483  1
  O  O3054  1  0.12246500  0.86650967  0.14638150  1
  O  O3055  1  0.12246500  0.86650967  0.31304817  1
  O  O3056  1  0.12246500  0.86650967  0.47971483  1
  O  O3057  1  0.12246500  0.86650967  0.64638150  1
  O  O3058  1  0.12246500  0.86650967  0.81304817  1
  O  O3059  1  0.12246500  0.86650967  0.97971483  1
  O  O3060  1  0.28913167  0.03317633  0.14638150  1
  O  O3061  1  0.28913167  0.03317633  0.31304817  1
  O  O3062  1  0.28913167  0.03317633  0.47971483  1
  O  O3063  1  0.28913167  0.03317633  0.64638150  1
  O  O3064  1  0.28913167  0.03317633  0.81304817  1
  O  O3065  1  0.28913167  0.03317633  0.97971483  1
  O  O3066  1  0.28913167  0.19984300  0.14638150  1
  O  O3067  1  0.28913167  0.19984300  0.31304817  1
  O  O3068  1  0.28913167  0.19984300  0.47971483  1
  O  O3069  1  0.28913167  0.19984300  0.64638150  1
  O  O3070  1  0.28913167  0.19984300  0.81304817  1
  O  O3071  1  0.28913167  0.19984300  0.97971483  1
  O  O3072  1  0.28913167  0.36650967  0.14638150  1
  O  O3073  1  0.28913167  0.36650967  0.31304817  1
  O  O3074  1  0.28913167  0.36650967  0.47971483  1
  O  O3075  1  0.28913167  0.36650967  0.64638150  1
  O  O3076  1  0.28913167  0.36650967  0.81304817  1
  O  O3077  1  0.28913167  0.36650967  0.97971483  1
  O  O3078  1  0.28913167  0.53317633  0.14638150  1
  O  O3079  1  0.28913167  0.53317633  0.31304817  1
  O  O3080  1  0.28913167  0.53317633  0.47971483  1
  O  O3081  1  0.28913167  0.53317633  0.64638150  1
  O  O3082  1  0.28913167  0.53317633  0.81304817  1
  O  O3083  1  0.28913167  0.53317633  0.97971483  1
  O  O3084  1  0.28913167  0.69984300  0.14638150  1
  O  O3085  1  0.28913167  0.69984300  0.31304817  1
  O  O3086  1  0.28913167  0.69984300  0.47971483  1
  O  O3087  1  0.28913167  0.69984300  0.64638150  1
  O  O3088  1  0.28913167  0.69984300  0.81304817  1
  O  O3089  1  0.28913167  0.69984300  0.97971483  1
  O  O3090  1  0.28913167  0.86650967  0.14638150  1
  O  O3091  1  0.28913167  0.86650967  0.31304817  1
  O  O3092  1  0.28913167  0.86650967  0.47971483  1
  O  O3093  1  0.28913167  0.86650967  0.64638150  1
  O  O3094  1  0.28913167  0.86650967  0.81304817  1
  O  O3095  1  0.28913167  0.86650967  0.97971483  1
  O  O3096  1  0.45579833  0.03317633  0.14638150  1
  O  O3097  1  0.45579833  0.03317633  0.31304817  1
  O  O3098  1  0.45579833  0.03317633  0.47971483  1
  O  O3099  1  0.45579833  0.03317633  0.64638150  1
  O  O3100  1  0.45579833  0.03317633  0.81304817  1
  O  O3101  1  0.45579833  0.03317633  0.97971483  1
  O  O3102  1  0.45579833  0.19984300  0.14638150  1
  O  O3103  1  0.45579833  0.19984300  0.31304817  1
  O  O3104  1  0.45579833  0.19984300  0.47971483  1
  O  O3105  1  0.45579833  0.19984300  0.64638150  1
  O  O3106  1  0.45579833  0.19984300  0.81304817  1
  O  O3107  1  0.45579833  0.19984300  0.97971483  1
  O  O3108  1  0.45579833  0.36650967  0.14638150  1
  O  O3109  1  0.45579833  0.36650967  0.31304817  1
  O  O3110  1  0.45579833  0.36650967  0.47971483  1
  O  O3111  1  0.45579833  0.36650967  0.64638150  1
  O  O3112  1  0.45579833  0.36650967  0.81304817  1
  O  O3113  1  0.45579833  0.36650967  0.97971483  1
  O  O3114  1  0.45579833  0.53317633  0.14638150  1
  O  O3115  1  0.45579833  0.53317633  0.31304817  1
  O  O3116  1  0.45579833  0.53317633  0.47971483  1
  O  O3117  1  0.45579833  0.53317633  0.64638150  1
  O  O3118  1  0.45579833  0.53317633  0.81304817  1
  O  O3119  1  0.45579833  0.53317633  0.97971483  1
  O  O3120  1  0.45579833  0.69984300  0.14638150  1
  O  O3121  1  0.45579833  0.69984300  0.31304817  1
  O  O3122  1  0.45579833  0.69984300  0.47971483  1
  O  O3123  1  0.45579833  0.69984300  0.64638150  1
  O  O3124  1  0.45579833  0.69984300  0.81304817  1
  O  O3125  1  0.45579833  0.69984300  0.97971483  1
  O  O3126  1  0.45579833  0.86650967  0.14638150  1
  O  O3127  1  0.45579833  0.86650967  0.31304817  1
  O  O3128  1  0.45579833  0.86650967  0.47971483  1
  O  O3129  1  0.45579833  0.86650967  0.64638150  1
  O  O3130  1  0.45579833  0.86650967  0.81304817  1
  O  O3131  1  0.45579833  0.86650967  0.97971483  1
  O  O3132  1  0.62246500  0.03317633  0.14638150  1
  O  O3133  1  0.62246500  0.03317633  0.31304817  1
  O  O3134  1  0.62246500  0.03317633  0.47971483  1
  O  O3135  1  0.62246500  0.03317633  0.64638150  1
  O  O3136  1  0.62246500  0.03317633  0.81304817  1
  O  O3137  1  0.62246500  0.03317633  0.97971483  1
  O  O3138  1  0.62246500  0.19984300  0.14638150  1
  O  O3139  1  0.62246500  0.19984300  0.31304817  1
  O  O3140  1  0.62246500  0.19984300  0.47971483  1
  O  O3141  1  0.62246500  0.19984300  0.64638150  1
  O  O3142  1  0.62246500  0.19984300  0.81304817  1
  O  O3143  1  0.62246500  0.19984300  0.97971483  1
  O  O3144  1  0.62246500  0.36650967  0.14638150  1
  O  O3145  1  0.62246500  0.36650967  0.31304817  1
  O  O3146  1  0.62246500  0.36650967  0.47971483  1
  O  O3147  1  0.62246500  0.36650967  0.64638150  1
  O  O3148  1  0.62246500  0.36650967  0.81304817  1
  O  O3149  1  0.62246500  0.36650967  0.97971483  1
  O  O3150  1  0.62246500  0.53317633  0.14638150  1
  O  O3151  1  0.62246500  0.53317633  0.31304817  1
  O  O3152  1  0.62246500  0.53317633  0.47971483  1
  O  O3153  1  0.62246500  0.53317633  0.64638150  1
  O  O3154  1  0.62246500  0.53317633  0.81304817  1
  O  O3155  1  0.62246500  0.53317633  0.97971483  1
  O  O3156  1  0.62246500  0.69984300  0.14638150  1
  O  O3157  1  0.62246500  0.69984300  0.31304817  1
  O  O3158  1  0.62246500  0.69984300  0.47971483  1
  O  O3159  1  0.62246500  0.69984300  0.64638150  1
  O  O3160  1  0.62246500  0.69984300  0.81304817  1
  O  O3161  1  0.62246500  0.69984300  0.97971483  1
  O  O3162  1  0.62246500  0.86650967  0.14638150  1
  O  O3163  1  0.62246500  0.86650967  0.31304817  1
  O  O3164  1  0.62246500  0.86650967  0.47971483  1
  O  O3165  1  0.62246500  0.86650967  0.64638150  1
  O  O3166  1  0.62246500  0.86650967  0.81304817  1
  O  O3167  1  0.62246500  0.86650967  0.97971483  1
  O  O3168  1  0.78913167  0.03317633  0.14638150  1
  O  O3169  1  0.78913167  0.03317633  0.31304817  1
  O  O3170  1  0.78913167  0.03317633  0.47971483  1
  O  O3171  1  0.78913167  0.03317633  0.64638150  1
  O  O3172  1  0.78913167  0.03317633  0.81304817  1
  O  O3173  1  0.78913167  0.03317633  0.97971483  1
  O  O3174  1  0.78913167  0.19984300  0.14638150  1
  O  O3175  1  0.78913167  0.19984300  0.31304817  1
  O  O3176  1  0.78913167  0.19984300  0.47971483  1
  O  O3177  1  0.78913167  0.19984300  0.64638150  1
  O  O3178  1  0.78913167  0.19984300  0.81304817  1
  O  O3179  1  0.78913167  0.19984300  0.97971483  1
  O  O3180  1  0.78913167  0.36650967  0.14638150  1
  O  O3181  1  0.78913167  0.36650967  0.31304817  1
  O  O3182  1  0.78913167  0.36650967  0.47971483  1
  O  O3183  1  0.78913167  0.36650967  0.64638150  1
  O  O3184  1  0.78913167  0.36650967  0.81304817  1
  O  O3185  1  0.78913167  0.36650967  0.97971483  1
  O  O3186  1  0.78913167  0.53317633  0.14638150  1
  O  O3187  1  0.78913167  0.53317633  0.31304817  1
  O  O3188  1  0.78913167  0.53317633  0.47971483  1
  O  O3189  1  0.78913167  0.53317633  0.64638150  1
  O  O3190  1  0.78913167  0.53317633  0.81304817  1
  O  O3191  1  0.78913167  0.53317633  0.97971483  1
  O  O3192  1  0.78913167  0.69984300  0.14638150  1
  O  O3193  1  0.78913167  0.69984300  0.31304817  1
  O  O3194  1  0.78913167  0.69984300  0.47971483  1
  O  O3195  1  0.78913167  0.69984300  0.64638150  1
  O  O3196  1  0.78913167  0.69984300  0.81304817  1
  O  O3197  1  0.78913167  0.69984300  0.97971483  1
  O  O3198  1  0.78913167  0.86650967  0.14638150  1
  O  O3199  1  0.78913167  0.86650967  0.31304817  1
  O  O3200  1  0.78913167  0.86650967  0.47971483  1
  O  O3201  1  0.78913167  0.86650967  0.64638150  1
  O  O3202  1  0.78913167  0.86650967  0.81304817  1
  O  O3203  1  0.78913167  0.86650967  0.97971483  1
  O  O3204  1  0.95579833  0.03317633  0.14638150  1
  O  O3205  1  0.95579833  0.03317633  0.31304817  1
  O  O3206  1  0.95579833  0.03317633  0.47971483  1
  O  O3207  1  0.95579833  0.03317633  0.64638150  1
  O  O3208  1  0.95579833  0.03317633  0.81304817  1
  O  O3209  1  0.95579833  0.03317633  0.97971483  1
  O  O3210  1  0.95579833  0.19984300  0.14638150  1
  O  O3211  1  0.95579833  0.19984300  0.31304817  1
  O  O3212  1  0.95579833  0.19984300  0.47971483  1
  O  O3213  1  0.95579833  0.19984300  0.64638150  1
  O  O3214  1  0.95579833  0.19984300  0.81304817  1
  O  O3215  1  0.95579833  0.19984300  0.97971483  1
  O  O3216  1  0.95579833  0.36650967  0.14638150  1
  O  O3217  1  0.95579833  0.36650967  0.31304817  1
  O  O3218  1  0.95579833  0.36650967  0.47971483  1
  O  O3219  1  0.95579833  0.36650967  0.64638150  1
  O  O3220  1  0.95579833  0.36650967  0.81304817  1
  O  O3221  1  0.95579833  0.36650967  0.97971483  1
  O  O3222  1  0.95579833  0.53317633  0.14638150  1
  O  O3223  1  0.95579833  0.53317633  0.31304817  1
  O  O3224  1  0.95579833  0.53317633  0.47971483  1
  O  O3225  1  0.95579833  0.53317633  0.64638150  1
  O  O3226  1  0.95579833  0.53317633  0.81304817  1
  O  O3227  1  0.95579833  0.53317633  0.97971483  1
  O  O3228  1  0.95579833  0.69984300  0.14638150  1
  O  O3229  1  0.95579833  0.69984300  0.31304817  1
  O  O3230  1  0.95579833  0.69984300  0.47971483  1
  O  O3231  1  0.95579833  0.69984300  0.64638150  1
  O  O3232  1  0.95579833  0.69984300  0.81304817  1
  O  O3233  1  0.95579833  0.69984300  0.97971483  1
  O  O3234  1  0.95579833  0.86650967  0.14638150  1
  O  O3235  1  0.95579833  0.86650967  0.31304817  1
  O  O3236  1  0.95579833  0.86650967  0.47971483  1
  O  O3237  1  0.95579833  0.86650967  0.64638150  1
  O  O3238  1  0.95579833  0.86650967  0.81304817  1
  O  O3239  1  0.95579833  0.86650967  0.97971483  1
  O  O3240  1  0.04420167  0.13349033  0.02028517  1
  O  O3241  1  0.04420167  0.13349033  0.18695183  1
  O  O3242  1  0.04420167  0.13349033  0.35361850  1
  O  O3243  1  0.04420167  0.13349033  0.52028517  1
  O  O3244  1  0.04420167  0.13349033  0.68695183  1
  O  O3245  1  0.04420167  0.13349033  0.85361850  1
  O  O3246  1  0.04420167  0.30015700  0.02028517  1
  O  O3247  1  0.04420167  0.30015700  0.18695183  1
  O  O3248  1  0.04420167  0.30015700  0.35361850  1
  O  O3249  1  0.04420167  0.30015700  0.52028517  1
  O  O3250  1  0.04420167  0.30015700  0.68695183  1
  O  O3251  1  0.04420167  0.30015700  0.85361850  1
  O  O3252  1  0.04420167  0.46682367  0.02028517  1
  O  O3253  1  0.04420167  0.46682367  0.18695183  1
  O  O3254  1  0.04420167  0.46682367  0.35361850  1
  O  O3255  1  0.04420167  0.46682367  0.52028517  1
  O  O3256  1  0.04420167  0.46682367  0.68695183  1
  O  O3257  1  0.04420167  0.46682367  0.85361850  1
  O  O3258  1  0.04420167  0.63349033  0.02028517  1
  O  O3259  1  0.04420167  0.63349033  0.18695183  1
  O  O3260  1  0.04420167  0.63349033  0.35361850  1
  O  O3261  1  0.04420167  0.63349033  0.52028517  1
  O  O3262  1  0.04420167  0.63349033  0.68695183  1
  O  O3263  1  0.04420167  0.63349033  0.85361850  1
  O  O3264  1  0.04420167  0.80015700  0.02028517  1
  O  O3265  1  0.04420167  0.80015700  0.18695183  1
  O  O3266  1  0.04420167  0.80015700  0.35361850  1
  O  O3267  1  0.04420167  0.80015700  0.52028517  1
  O  O3268  1  0.04420167  0.80015700  0.68695183  1
  O  O3269  1  0.04420167  0.80015700  0.85361850  1
  O  O3270  1  0.04420167  0.96682367  0.02028517  1
  O  O3271  1  0.04420167  0.96682367  0.18695183  1
  O  O3272  1  0.04420167  0.96682367  0.35361850  1
  O  O3273  1  0.04420167  0.96682367  0.52028517  1
  O  O3274  1  0.04420167  0.96682367  0.68695183  1
  O  O3275  1  0.04420167  0.96682367  0.85361850  1
  O  O3276  1  0.21086833  0.13349033  0.02028517  1
  O  O3277  1  0.21086833  0.13349033  0.18695183  1
  O  O3278  1  0.21086833  0.13349033  0.35361850  1
  O  O3279  1  0.21086833  0.13349033  0.52028517  1
  O  O3280  1  0.21086833  0.13349033  0.68695183  1
  O  O3281  1  0.21086833  0.13349033  0.85361850  1
  O  O3282  1  0.21086833  0.30015700  0.02028517  1
  O  O3283  1  0.21086833  0.30015700  0.18695183  1
  O  O3284  1  0.21086833  0.30015700  0.35361850  1
  O  O3285  1  0.21086833  0.30015700  0.52028517  1
  O  O3286  1  0.21086833  0.30015700  0.68695183  1
  O  O3287  1  0.21086833  0.30015700  0.85361850  1
  O  O3288  1  0.21086833  0.46682367  0.02028517  1
  O  O3289  1  0.21086833  0.46682367  0.18695183  1
  O  O3290  1  0.21086833  0.46682367  0.35361850  1
  O  O3291  1  0.21086833  0.46682367  0.52028517  1
  O  O3292  1  0.21086833  0.46682367  0.68695183  1
  O  O3293  1  0.21086833  0.46682367  0.85361850  1
  O  O3294  1  0.21086833  0.63349033  0.02028517  1
  O  O3295  1  0.21086833  0.63349033  0.18695183  1
  O  O3296  1  0.21086833  0.63349033  0.35361850  1
  O  O3297  1  0.21086833  0.63349033  0.52028517  1
  O  O3298  1  0.21086833  0.63349033  0.68695183  1
  O  O3299  1  0.21086833  0.63349033  0.85361850  1
  O  O3300  1  0.21086833  0.80015700  0.02028517  1
  O  O3301  1  0.21086833  0.80015700  0.18695183  1
  O  O3302  1  0.21086833  0.80015700  0.35361850  1
  O  O3303  1  0.21086833  0.80015700  0.52028517  1
  O  O3304  1  0.21086833  0.80015700  0.68695183  1
  O  O3305  1  0.21086833  0.80015700  0.85361850  1
  O  O3306  1  0.21086833  0.96682367  0.02028517  1
  O  O3307  1  0.21086833  0.96682367  0.18695183  1
  O  O3308  1  0.21086833  0.96682367  0.35361850  1
  O  O3309  1  0.21086833  0.96682367  0.52028517  1
  O  O3310  1  0.21086833  0.96682367  0.68695183  1
  O  O3311  1  0.21086833  0.96682367  0.85361850  1
  O  O3312  1  0.37753500  0.13349033  0.02028517  1
  O  O3313  1  0.37753500  0.13349033  0.18695183  1
  O  O3314  1  0.37753500  0.13349033  0.35361850  1
  O  O3315  1  0.37753500  0.13349033  0.52028517  1
  O  O3316  1  0.37753500  0.13349033  0.68695183  1
  O  O3317  1  0.37753500  0.13349033  0.85361850  1
  O  O3318  1  0.37753500  0.30015700  0.02028517  1
  O  O3319  1  0.37753500  0.30015700  0.18695183  1
  O  O3320  1  0.37753500  0.30015700  0.35361850  1
  O  O3321  1  0.37753500  0.30015700  0.52028517  1
  O  O3322  1  0.37753500  0.30015700  0.68695183  1
  O  O3323  1  0.37753500  0.30015700  0.85361850  1
  O  O3324  1  0.37753500  0.46682367  0.02028517  1
  O  O3325  1  0.37753500  0.46682367  0.18695183  1
  O  O3326  1  0.37753500  0.46682367  0.35361850  1
  O  O3327  1  0.37753500  0.46682367  0.52028517  1
  O  O3328  1  0.37753500  0.46682367  0.68695183  1
  O  O3329  1  0.37753500  0.46682367  0.85361850  1
  O  O3330  1  0.37753500  0.63349033  0.02028517  1
  O  O3331  1  0.37753500  0.63349033  0.18695183  1
  O  O3332  1  0.37753500  0.63349033  0.35361850  1
  O  O3333  1  0.37753500  0.63349033  0.52028517  1
  O  O3334  1  0.37753500  0.63349033  0.68695183  1
  O  O3335  1  0.37753500  0.63349033  0.85361850  1
  O  O3336  1  0.37753500  0.80015700  0.02028517  1
  O  O3337  1  0.37753500  0.80015700  0.18695183  1
  O  O3338  1  0.37753500  0.80015700  0.35361850  1
  O  O3339  1  0.37753500  0.80015700  0.52028517  1
  O  O3340  1  0.37753500  0.80015700  0.68695183  1
  O  O3341  1  0.37753500  0.80015700  0.85361850  1
  O  O3342  1  0.37753500  0.96682367  0.02028517  1
  O  O3343  1  0.37753500  0.96682367  0.18695183  1
  O  O3344  1  0.37753500  0.96682367  0.35361850  1
  O  O3345  1  0.37753500  0.96682367  0.52028517  1
  O  O3346  1  0.37753500  0.96682367  0.68695183  1
  O  O3347  1  0.37753500  0.96682367  0.85361850  1
  O  O3348  1  0.54420167  0.13349033  0.02028517  1
  O  O3349  1  0.54420167  0.13349033  0.18695183  1
  O  O3350  1  0.54420167  0.13349033  0.35361850  1
  O  O3351  1  0.54420167  0.13349033  0.52028517  1
  O  O3352  1  0.54420167  0.13349033  0.68695183  1
  O  O3353  1  0.54420167  0.13349033  0.85361850  1
  O  O3354  1  0.54420167  0.30015700  0.02028517  1
  O  O3355  1  0.54420167  0.30015700  0.18695183  1
  O  O3356  1  0.54420167  0.30015700  0.35361850  1
  O  O3357  1  0.54420167  0.30015700  0.52028517  1
  O  O3358  1  0.54420167  0.30015700  0.68695183  1
  O  O3359  1  0.54420167  0.30015700  0.85361850  1
  O  O3360  1  0.54420167  0.46682367  0.02028517  1
  O  O3361  1  0.54420167  0.46682367  0.18695183  1
  O  O3362  1  0.54420167  0.46682367  0.35361850  1
  O  O3363  1  0.54420167  0.46682367  0.52028517  1
  O  O3364  1  0.54420167  0.46682367  0.68695183  1
  O  O3365  1  0.54420167  0.46682367  0.85361850  1
  O  O3366  1  0.54420167  0.63349033  0.02028517  1
  O  O3367  1  0.54420167  0.63349033  0.18695183  1
  O  O3368  1  0.54420167  0.63349033  0.35361850  1
  O  O3369  1  0.54420167  0.63349033  0.52028517  1
  O  O3370  1  0.54420167  0.63349033  0.68695183  1
  O  O3371  1  0.54420167  0.63349033  0.85361850  1
  O  O3372  1  0.54420167  0.80015700  0.02028517  1
  O  O3373  1  0.54420167  0.80015700  0.18695183  1
  O  O3374  1  0.54420167  0.80015700  0.35361850  1
  O  O3375  1  0.54420167  0.80015700  0.52028517  1
  O  O3376  1  0.54420167  0.80015700  0.68695183  1
  O  O3377  1  0.54420167  0.80015700  0.85361850  1
  O  O3378  1  0.54420167  0.96682367  0.02028517  1
  O  O3379  1  0.54420167  0.96682367  0.18695183  1
  O  O3380  1  0.54420167  0.96682367  0.35361850  1
  O  O3381  1  0.54420167  0.96682367  0.52028517  1
  O  O3382  1  0.54420167  0.96682367  0.68695183  1
  O  O3383  1  0.54420167  0.96682367  0.85361850  1
  O  O3384  1  0.71086833  0.13349033  0.02028517  1
  O  O3385  1  0.71086833  0.13349033  0.18695183  1
  O  O3386  1  0.71086833  0.13349033  0.35361850  1
  O  O3387  1  0.71086833  0.13349033  0.52028517  1
  O  O3388  1  0.71086833  0.13349033  0.68695183  1
  O  O3389  1  0.71086833  0.13349033  0.85361850  1
  O  O3390  1  0.71086833  0.30015700  0.02028517  1
  O  O3391  1  0.71086833  0.30015700  0.18695183  1
  O  O3392  1  0.71086833  0.30015700  0.35361850  1
  O  O3393  1  0.71086833  0.30015700  0.52028517  1
  O  O3394  1  0.71086833  0.30015700  0.68695183  1
  O  O3395  1  0.71086833  0.30015700  0.85361850  1
  O  O3396  1  0.71086833  0.46682367  0.02028517  1
  O  O3397  1  0.71086833  0.46682367  0.18695183  1
  O  O3398  1  0.71086833  0.46682367  0.35361850  1
  O  O3399  1  0.71086833  0.46682367  0.52028517  1
  O  O3400  1  0.71086833  0.46682367  0.68695183  1
  O  O3401  1  0.71086833  0.46682367  0.85361850  1
  O  O3402  1  0.71086833  0.63349033  0.02028517  1
  O  O3403  1  0.71086833  0.63349033  0.18695183  1
  O  O3404  1  0.71086833  0.63349033  0.35361850  1
  O  O3405  1  0.71086833  0.63349033  0.52028517  1
  O  O3406  1  0.71086833  0.63349033  0.68695183  1
  O  O3407  1  0.71086833  0.63349033  0.85361850  1
  O  O3408  1  0.71086833  0.80015700  0.02028517  1
  O  O3409  1  0.71086833  0.80015700  0.18695183  1
  O  O3410  1  0.71086833  0.80015700  0.35361850  1
  O  O3411  1  0.71086833  0.80015700  0.52028517  1
  O  O3412  1  0.71086833  0.80015700  0.68695183  1
  O  O3413  1  0.71086833  0.80015700  0.85361850  1
  O  O3414  1  0.71086833  0.96682367  0.02028517  1
  O  O3415  1  0.71086833  0.96682367  0.18695183  1
  O  O3416  1  0.71086833  0.96682367  0.35361850  1
  O  O3417  1  0.71086833  0.96682367  0.52028517  1
  O  O3418  1  0.71086833  0.96682367  0.68695183  1
  O  O3419  1  0.71086833  0.96682367  0.85361850  1
  O  O3420  1  0.87753500  0.13349033  0.02028517  1
  O  O3421  1  0.87753500  0.13349033  0.18695183  1
  O  O3422  1  0.87753500  0.13349033  0.35361850  1
  O  O3423  1  0.87753500  0.13349033  0.52028517  1
  O  O3424  1  0.87753500  0.13349033  0.68695183  1
  O  O3425  1  0.87753500  0.13349033  0.85361850  1
  O  O3426  1  0.87753500  0.30015700  0.02028517  1
  O  O3427  1  0.87753500  0.30015700  0.18695183  1
  O  O3428  1  0.87753500  0.30015700  0.35361850  1
  O  O3429  1  0.87753500  0.30015700  0.52028517  1
  O  O3430  1  0.87753500  0.30015700  0.68695183  1
  O  O3431  1  0.87753500  0.30015700  0.85361850  1
  O  O3432  1  0.87753500  0.46682367  0.02028517  1
  O  O3433  1  0.87753500  0.46682367  0.18695183  1
  O  O3434  1  0.87753500  0.46682367  0.35361850  1
  O  O3435  1  0.87753500  0.46682367  0.52028517  1
  O  O3436  1  0.87753500  0.46682367  0.68695183  1
  O  O3437  1  0.87753500  0.46682367  0.85361850  1
  O  O3438  1  0.87753500  0.63349033  0.02028517  1
  O  O3439  1  0.87753500  0.63349033  0.18695183  1
  O  O3440  1  0.87753500  0.63349033  0.35361850  1
  O  O3441  1  0.87753500  0.63349033  0.52028517  1
  O  O3442  1  0.87753500  0.63349033  0.68695183  1
  O  O3443  1  0.87753500  0.63349033  0.85361850  1
  O  O3444  1  0.87753500  0.80015700  0.02028517  1
  O  O3445  1  0.87753500  0.80015700  0.18695183  1
  O  O3446  1  0.87753500  0.80015700  0.35361850  1
  O  O3447  1  0.87753500  0.80015700  0.52028517  1
  O  O3448  1  0.87753500  0.80015700  0.68695183  1
  O  O3449  1  0.87753500  0.80015700  0.85361850  1
  O  O3450  1  0.87753500  0.96682367  0.02028517  1
  O  O3451  1  0.87753500  0.96682367  0.18695183  1
  O  O3452  1  0.87753500  0.96682367  0.35361850  1
  O  O3453  1  0.87753500  0.96682367  0.52028517  1
  O  O3454  1  0.87753500  0.96682367  0.68695183  1
  O  O3455  1  0.87753500  0.96682367  0.85361850  1
  O  O3456  1  0.05890600  0.10663000  0.06777017  1
  O  O3457  1  0.05890600  0.10663000  0.23443683  1
  O  O3458  1  0.05890600  0.10663000  0.40110350  1
  O  O3459  1  0.05890600  0.10663000  0.56777017  1
  O  O3460  1  0.05890600  0.10663000  0.73443683  1
  O  O3461  1  0.05890600  0.10663000  0.90110350  1
  O  O3462  1  0.05890600  0.27329667  0.06777017  1
  O  O3463  1  0.05890600  0.27329667  0.23443683  1
  O  O3464  1  0.05890600  0.27329667  0.40110350  1
  O  O3465  1  0.05890600  0.27329667  0.56777017  1
  O  O3466  1  0.05890600  0.27329667  0.73443683  1
  O  O3467  1  0.05890600  0.27329667  0.90110350  1
  O  O3468  1  0.05890600  0.43996333  0.06777017  1
  O  O3469  1  0.05890600  0.43996333  0.23443683  1
  O  O3470  1  0.05890600  0.43996333  0.40110350  1
  O  O3471  1  0.05890600  0.43996333  0.56777017  1
  O  O3472  1  0.05890600  0.43996333  0.73443683  1
  O  O3473  1  0.05890600  0.43996333  0.90110350  1
  O  O3474  1  0.05890600  0.60663000  0.06777017  1
  O  O3475  1  0.05890600  0.60663000  0.23443683  1
  O  O3476  1  0.05890600  0.60663000  0.40110350  1
  O  O3477  1  0.05890600  0.60663000  0.56777017  1
  O  O3478  1  0.05890600  0.60663000  0.73443683  1
  O  O3479  1  0.05890600  0.60663000  0.90110350  1
  O  O3480  1  0.05890600  0.77329667  0.06777017  1
  O  O3481  1  0.05890600  0.77329667  0.23443683  1
  O  O3482  1  0.05890600  0.77329667  0.40110350  1
  O  O3483  1  0.05890600  0.77329667  0.56777017  1
  O  O3484  1  0.05890600  0.77329667  0.73443683  1
  O  O3485  1  0.05890600  0.77329667  0.90110350  1
  O  O3486  1  0.05890600  0.93996333  0.06777017  1
  O  O3487  1  0.05890600  0.93996333  0.23443683  1
  O  O3488  1  0.05890600  0.93996333  0.40110350  1
  O  O3489  1  0.05890600  0.93996333  0.56777017  1
  O  O3490  1  0.05890600  0.93996333  0.73443683  1
  O  O3491  1  0.05890600  0.93996333  0.90110350  1
  O  O3492  1  0.22557267  0.10663000  0.06777017  1
  O  O3493  1  0.22557267  0.10663000  0.23443683  1
  O  O3494  1  0.22557267  0.10663000  0.40110350  1
  O  O3495  1  0.22557267  0.10663000  0.56777017  1
  O  O3496  1  0.22557267  0.10663000  0.73443683  1
  O  O3497  1  0.22557267  0.10663000  0.90110350  1
  O  O3498  1  0.22557267  0.27329667  0.06777017  1
  O  O3499  1  0.22557267  0.27329667  0.23443683  1
  O  O3500  1  0.22557267  0.27329667  0.40110350  1
  O  O3501  1  0.22557267  0.27329667  0.56777017  1
  O  O3502  1  0.22557267  0.27329667  0.73443683  1
  O  O3503  1  0.22557267  0.27329667  0.90110350  1
  O  O3504  1  0.22557267  0.43996333  0.06777017  1
  O  O3505  1  0.22557267  0.43996333  0.23443683  1
  O  O3506  1  0.22557267  0.43996333  0.40110350  1
  O  O3507  1  0.22557267  0.43996333  0.56777017  1
  O  O3508  1  0.22557267  0.43996333  0.73443683  1
  O  O3509  1  0.22557267  0.43996333  0.90110350  1
  O  O3510  1  0.22557267  0.60663000  0.06777017  1
  O  O3511  1  0.22557267  0.60663000  0.23443683  1
  O  O3512  1  0.22557267  0.60663000  0.40110350  1
  O  O3513  1  0.22557267  0.60663000  0.56777017  1
  O  O3514  1  0.22557267  0.60663000  0.73443683  1
  O  O3515  1  0.22557267  0.60663000  0.90110350  1
  O  O3516  1  0.22557267  0.77329667  0.06777017  1
  O  O3517  1  0.22557267  0.77329667  0.23443683  1
  O  O3518  1  0.22557267  0.77329667  0.40110350  1
  O  O3519  1  0.22557267  0.77329667  0.56777017  1
  O  O3520  1  0.22557267  0.77329667  0.73443683  1
  O  O3521  1  0.22557267  0.77329667  0.90110350  1
  O  O3522  1  0.22557267  0.93996333  0.06777017  1
  O  O3523  1  0.22557267  0.93996333  0.23443683  1
  O  O3524  1  0.22557267  0.93996333  0.40110350  1
  O  O3525  1  0.22557267  0.93996333  0.56777017  1
  O  O3526  1  0.22557267  0.93996333  0.73443683  1
  O  O3527  1  0.22557267  0.93996333  0.90110350  1
  O  O3528  1  0.39223933  0.10663000  0.06777017  1
  O  O3529  1  0.39223933  0.10663000  0.23443683  1
  O  O3530  1  0.39223933  0.10663000  0.40110350  1
  O  O3531  1  0.39223933  0.10663000  0.56777017  1
  O  O3532  1  0.39223933  0.10663000  0.73443683  1
  O  O3533  1  0.39223933  0.10663000  0.90110350  1
  O  O3534  1  0.39223933  0.27329667  0.06777017  1
  O  O3535  1  0.39223933  0.27329667  0.23443683  1
  O  O3536  1  0.39223933  0.27329667  0.40110350  1
  O  O3537  1  0.39223933  0.27329667  0.56777017  1
  O  O3538  1  0.39223933  0.27329667  0.73443683  1
  O  O3539  1  0.39223933  0.27329667  0.90110350  1
  O  O3540  1  0.39223933  0.43996333  0.06777017  1
  O  O3541  1  0.39223933  0.43996333  0.23443683  1
  O  O3542  1  0.39223933  0.43996333  0.40110350  1
  O  O3543  1  0.39223933  0.43996333  0.56777017  1
  O  O3544  1  0.39223933  0.43996333  0.73443683  1
  O  O3545  1  0.39223933  0.43996333  0.90110350  1
  O  O3546  1  0.39223933  0.60663000  0.06777017  1
  O  O3547  1  0.39223933  0.60663000  0.23443683  1
  O  O3548  1  0.39223933  0.60663000  0.40110350  1
  O  O3549  1  0.39223933  0.60663000  0.56777017  1
  O  O3550  1  0.39223933  0.60663000  0.73443683  1
  O  O3551  1  0.39223933  0.60663000  0.90110350  1
  O  O3552  1  0.39223933  0.77329667  0.06777017  1
  O  O3553  1  0.39223933  0.77329667  0.23443683  1
  O  O3554  1  0.39223933  0.77329667  0.40110350  1
  O  O3555  1  0.39223933  0.77329667  0.56777017  1
  O  O3556  1  0.39223933  0.77329667  0.73443683  1
  O  O3557  1  0.39223933  0.77329667  0.90110350  1
  O  O3558  1  0.39223933  0.93996333  0.06777017  1
  O  O3559  1  0.39223933  0.93996333  0.23443683  1
  O  O3560  1  0.39223933  0.93996333  0.40110350  1
  O  O3561  1  0.39223933  0.93996333  0.56777017  1
  O  O3562  1  0.39223933  0.93996333  0.73443683  1
  O  O3563  1  0.39223933  0.93996333  0.90110350  1
  O  O3564  1  0.55890600  0.10663000  0.06777017  1
  O  O3565  1  0.55890600  0.10663000  0.23443683  1
  O  O3566  1  0.55890600  0.10663000  0.40110350  1
  O  O3567  1  0.55890600  0.10663000  0.56777017  1
  O  O3568  1  0.55890600  0.10663000  0.73443683  1
  O  O3569  1  0.55890600  0.10663000  0.90110350  1
  O  O3570  1  0.55890600  0.27329667  0.06777017  1
  O  O3571  1  0.55890600  0.27329667  0.23443683  1
  O  O3572  1  0.55890600  0.27329667  0.40110350  1
  O  O3573  1  0.55890600  0.27329667  0.56777017  1
  O  O3574  1  0.55890600  0.27329667  0.73443683  1
  O  O3575  1  0.55890600  0.27329667  0.90110350  1
  O  O3576  1  0.55890600  0.43996333  0.06777017  1
  O  O3577  1  0.55890600  0.43996333  0.23443683  1
  O  O3578  1  0.55890600  0.43996333  0.40110350  1
  O  O3579  1  0.55890600  0.43996333  0.56777017  1
  O  O3580  1  0.55890600  0.43996333  0.73443683  1
  O  O3581  1  0.55890600  0.43996333  0.90110350  1
  O  O3582  1  0.55890600  0.60663000  0.06777017  1
  O  O3583  1  0.55890600  0.60663000  0.23443683  1
  O  O3584  1  0.55890600  0.60663000  0.40110350  1
  O  O3585  1  0.55890600  0.60663000  0.56777017  1
  O  O3586  1  0.55890600  0.60663000  0.73443683  1
  O  O3587  1  0.55890600  0.60663000  0.90110350  1
  O  O3588  1  0.55890600  0.77329667  0.06777017  1
  O  O3589  1  0.55890600  0.77329667  0.23443683  1
  O  O3590  1  0.55890600  0.77329667  0.40110350  1
  O  O3591  1  0.55890600  0.77329667  0.56777017  1
  O  O3592  1  0.55890600  0.77329667  0.73443683  1
  O  O3593  1  0.55890600  0.77329667  0.90110350  1
  O  O3594  1  0.55890600  0.93996333  0.06777017  1
  O  O3595  1  0.55890600  0.93996333  0.23443683  1
  O  O3596  1  0.55890600  0.93996333  0.40110350  1
  O  O3597  1  0.55890600  0.93996333  0.56777017  1
  O  O3598  1  0.55890600  0.93996333  0.73443683  1
  O  O3599  1  0.55890600  0.93996333  0.90110350  1
  O  O3600  1  0.72557267  0.10663000  0.06777017  1
  O  O3601  1  0.72557267  0.10663000  0.23443683  1
  O  O3602  1  0.72557267  0.10663000  0.40110350  1
  O  O3603  1  0.72557267  0.10663000  0.56777017  1
  O  O3604  1  0.72557267  0.10663000  0.73443683  1
  O  O3605  1  0.72557267  0.10663000  0.90110350  1
  O  O3606  1  0.72557267  0.27329667  0.06777017  1
  O  O3607  1  0.72557267  0.27329667  0.23443683  1
  O  O3608  1  0.72557267  0.27329667  0.40110350  1
  O  O3609  1  0.72557267  0.27329667  0.56777017  1
  O  O3610  1  0.72557267  0.27329667  0.73443683  1
  O  O3611  1  0.72557267  0.27329667  0.90110350  1
  O  O3612  1  0.72557267  0.43996333  0.06777017  1
  O  O3613  1  0.72557267  0.43996333  0.23443683  1
  O  O3614  1  0.72557267  0.43996333  0.40110350  1
  O  O3615  1  0.72557267  0.43996333  0.56777017  1
  O  O3616  1  0.72557267  0.43996333  0.73443683  1
  O  O3617  1  0.72557267  0.43996333  0.90110350  1
  O  O3618  1  0.72557267  0.60663000  0.06777017  1
  O  O3619  1  0.72557267  0.60663000  0.23443683  1
  O  O3620  1  0.72557267  0.60663000  0.40110350  1
  O  O3621  1  0.72557267  0.60663000  0.56777017  1
  O  O3622  1  0.72557267  0.60663000  0.73443683  1
  O  O3623  1  0.72557267  0.60663000  0.90110350  1
  O  O3624  1  0.72557267  0.77329667  0.06777017  1
  O  O3625  1  0.72557267  0.77329667  0.23443683  1
  O  O3626  1  0.72557267  0.77329667  0.40110350  1
  O  O3627  1  0.72557267  0.77329667  0.56777017  1
  O  O3628  1  0.72557267  0.77329667  0.73443683  1
  O  O3629  1  0.72557267  0.77329667  0.90110350  1
  O  O3630  1  0.72557267  0.93996333  0.06777017  1
  O  O3631  1  0.72557267  0.93996333  0.23443683  1
  O  O3632  1  0.72557267  0.93996333  0.40110350  1
  O  O3633  1  0.72557267  0.93996333  0.56777017  1
  O  O3634  1  0.72557267  0.93996333  0.73443683  1
  O  O3635  1  0.72557267  0.93996333  0.90110350  1
  O  O3636  1  0.89223933  0.10663000  0.06777017  1
  O  O3637  1  0.89223933  0.10663000  0.23443683  1
  O  O3638  1  0.89223933  0.10663000  0.40110350  1
  O  O3639  1  0.89223933  0.10663000  0.56777017  1
  O  O3640  1  0.89223933  0.10663000  0.73443683  1
  O  O3641  1  0.89223933  0.10663000  0.90110350  1
  O  O3642  1  0.89223933  0.27329667  0.06777017  1
  O  O3643  1  0.89223933  0.27329667  0.23443683  1
  O  O3644  1  0.89223933  0.27329667  0.40110350  1
  O  O3645  1  0.89223933  0.27329667  0.56777017  1
  O  O3646  1  0.89223933  0.27329667  0.73443683  1
  O  O3647  1  0.89223933  0.27329667  0.90110350  1
  O  O3648  1  0.89223933  0.43996333  0.06777017  1
  O  O3649  1  0.89223933  0.43996333  0.23443683  1
  O  O3650  1  0.89223933  0.43996333  0.40110350  1
  O  O3651  1  0.89223933  0.43996333  0.56777017  1
  O  O3652  1  0.89223933  0.43996333  0.73443683  1
  O  O3653  1  0.89223933  0.43996333  0.90110350  1
  O  O3654  1  0.89223933  0.60663000  0.06777017  1
  O  O3655  1  0.89223933  0.60663000  0.23443683  1
  O  O3656  1  0.89223933  0.60663000  0.40110350  1
  O  O3657  1  0.89223933  0.60663000  0.56777017  1
  O  O3658  1  0.89223933  0.60663000  0.73443683  1
  O  O3659  1  0.89223933  0.60663000  0.90110350  1
  O  O3660  1  0.89223933  0.77329667  0.06777017  1
  O  O3661  1  0.89223933  0.77329667  0.23443683  1
  O  O3662  1  0.89223933  0.77329667  0.40110350  1
  O  O3663  1  0.89223933  0.77329667  0.56777017  1
  O  O3664  1  0.89223933  0.77329667  0.73443683  1
  O  O3665  1  0.89223933  0.77329667  0.90110350  1
  O  O3666  1  0.89223933  0.93996333  0.06777017  1
  O  O3667  1  0.89223933  0.93996333  0.23443683  1
  O  O3668  1  0.89223933  0.93996333  0.40110350  1
  O  O3669  1  0.89223933  0.93996333  0.56777017  1
  O  O3670  1  0.89223933  0.93996333  0.73443683  1
  O  O3671  1  0.89223933  0.93996333  0.90110350  1
  O  O3672  1  0.10776067  0.06003667  0.09889650  1
  O  O3673  1  0.10776067  0.06003667  0.26556317  1
  O  O3674  1  0.10776067  0.06003667  0.43222983  1
  O  O3675  1  0.10776067  0.06003667  0.59889650  1
  O  O3676  1  0.10776067  0.06003667  0.76556317  1
  O  O3677  1  0.10776067  0.06003667  0.93222983  1
  O  O3678  1  0.10776067  0.22670333  0.09889650  1
  O  O3679  1  0.10776067  0.22670333  0.26556317  1
  O  O3680  1  0.10776067  0.22670333  0.43222983  1
  O  O3681  1  0.10776067  0.22670333  0.59889650  1
  O  O3682  1  0.10776067  0.22670333  0.76556317  1
  O  O3683  1  0.10776067  0.22670333  0.93222983  1
  O  O3684  1  0.10776067  0.39337000  0.09889650  1
  O  O3685  1  0.10776067  0.39337000  0.26556317  1
  O  O3686  1  0.10776067  0.39337000  0.43222983  1
  O  O3687  1  0.10776067  0.39337000  0.59889650  1
  O  O3688  1  0.10776067  0.39337000  0.76556317  1
  O  O3689  1  0.10776067  0.39337000  0.93222983  1
  O  O3690  1  0.10776067  0.56003667  0.09889650  1
  O  O3691  1  0.10776067  0.56003667  0.26556317  1
  O  O3692  1  0.10776067  0.56003667  0.43222983  1
  O  O3693  1  0.10776067  0.56003667  0.59889650  1
  O  O3694  1  0.10776067  0.56003667  0.76556317  1
  O  O3695  1  0.10776067  0.56003667  0.93222983  1
  O  O3696  1  0.10776067  0.72670333  0.09889650  1
  O  O3697  1  0.10776067  0.72670333  0.26556317  1
  O  O3698  1  0.10776067  0.72670333  0.43222983  1
  O  O3699  1  0.10776067  0.72670333  0.59889650  1
  O  O3700  1  0.10776067  0.72670333  0.76556317  1
  O  O3701  1  0.10776067  0.72670333  0.93222983  1
  O  O3702  1  0.10776067  0.89337000  0.09889650  1
  O  O3703  1  0.10776067  0.89337000  0.26556317  1
  O  O3704  1  0.10776067  0.89337000  0.43222983  1
  O  O3705  1  0.10776067  0.89337000  0.59889650  1
  O  O3706  1  0.10776067  0.89337000  0.76556317  1
  O  O3707  1  0.10776067  0.89337000  0.93222983  1
  O  O3708  1  0.27442733  0.06003667  0.09889650  1
  O  O3709  1  0.27442733  0.06003667  0.26556317  1
  O  O3710  1  0.27442733  0.06003667  0.43222983  1
  O  O3711  1  0.27442733  0.06003667  0.59889650  1
  O  O3712  1  0.27442733  0.06003667  0.76556317  1
  O  O3713  1  0.27442733  0.06003667  0.93222983  1
  O  O3714  1  0.27442733  0.22670333  0.09889650  1
  O  O3715  1  0.27442733  0.22670333  0.26556317  1
  O  O3716  1  0.27442733  0.22670333  0.43222983  1
  O  O3717  1  0.27442733  0.22670333  0.59889650  1
  O  O3718  1  0.27442733  0.22670333  0.76556317  1
  O  O3719  1  0.27442733  0.22670333  0.93222983  1
  O  O3720  1  0.27442733  0.39337000  0.09889650  1
  O  O3721  1  0.27442733  0.39337000  0.26556317  1
  O  O3722  1  0.27442733  0.39337000  0.43222983  1
  O  O3723  1  0.27442733  0.39337000  0.59889650  1
  O  O3724  1  0.27442733  0.39337000  0.76556317  1
  O  O3725  1  0.27442733  0.39337000  0.93222983  1
  O  O3726  1  0.27442733  0.56003667  0.09889650  1
  O  O3727  1  0.27442733  0.56003667  0.26556317  1
  O  O3728  1  0.27442733  0.56003667  0.43222983  1
  O  O3729  1  0.27442733  0.56003667  0.59889650  1
  O  O3730  1  0.27442733  0.56003667  0.76556317  1
  O  O3731  1  0.27442733  0.56003667  0.93222983  1
  O  O3732  1  0.27442733  0.72670333  0.09889650  1
  O  O3733  1  0.27442733  0.72670333  0.26556317  1
  O  O3734  1  0.27442733  0.72670333  0.43222983  1
  O  O3735  1  0.27442733  0.72670333  0.59889650  1
  O  O3736  1  0.27442733  0.72670333  0.76556317  1
  O  O3737  1  0.27442733  0.72670333  0.93222983  1
  O  O3738  1  0.27442733  0.89337000  0.09889650  1
  O  O3739  1  0.27442733  0.89337000  0.26556317  1
  O  O3740  1  0.27442733  0.89337000  0.43222983  1
  O  O3741  1  0.27442733  0.89337000  0.59889650  1
  O  O3742  1  0.27442733  0.89337000  0.76556317  1
  O  O3743  1  0.27442733  0.89337000  0.93222983  1
  O  O3744  1  0.44109400  0.06003667  0.09889650  1
  O  O3745  1  0.44109400  0.06003667  0.26556317  1
  O  O3746  1  0.44109400  0.06003667  0.43222983  1
  O  O3747  1  0.44109400  0.06003667  0.59889650  1
  O  O3748  1  0.44109400  0.06003667  0.76556317  1
  O  O3749  1  0.44109400  0.06003667  0.93222983  1
  O  O3750  1  0.44109400  0.22670333  0.09889650  1
  O  O3751  1  0.44109400  0.22670333  0.26556317  1
  O  O3752  1  0.44109400  0.22670333  0.43222983  1
  O  O3753  1  0.44109400  0.22670333  0.59889650  1
  O  O3754  1  0.44109400  0.22670333  0.76556317  1
  O  O3755  1  0.44109400  0.22670333  0.93222983  1
  O  O3756  1  0.44109400  0.39337000  0.09889650  1
  O  O3757  1  0.44109400  0.39337000  0.26556317  1
  O  O3758  1  0.44109400  0.39337000  0.43222983  1
  O  O3759  1  0.44109400  0.39337000  0.59889650  1
  O  O3760  1  0.44109400  0.39337000  0.76556317  1
  O  O3761  1  0.44109400  0.39337000  0.93222983  1
  O  O3762  1  0.44109400  0.56003667  0.09889650  1
  O  O3763  1  0.44109400  0.56003667  0.26556317  1
  O  O3764  1  0.44109400  0.56003667  0.43222983  1
  O  O3765  1  0.44109400  0.56003667  0.59889650  1
  O  O3766  1  0.44109400  0.56003667  0.76556317  1
  O  O3767  1  0.44109400  0.56003667  0.93222983  1
  O  O3768  1  0.44109400  0.72670333  0.09889650  1
  O  O3769  1  0.44109400  0.72670333  0.26556317  1
  O  O3770  1  0.44109400  0.72670333  0.43222983  1
  O  O3771  1  0.44109400  0.72670333  0.59889650  1
  O  O3772  1  0.44109400  0.72670333  0.76556317  1
  O  O3773  1  0.44109400  0.72670333  0.93222983  1
  O  O3774  1  0.44109400  0.89337000  0.09889650  1
  O  O3775  1  0.44109400  0.89337000  0.26556317  1
  O  O3776  1  0.44109400  0.89337000  0.43222983  1
  O  O3777  1  0.44109400  0.89337000  0.59889650  1
  O  O3778  1  0.44109400  0.89337000  0.76556317  1
  O  O3779  1  0.44109400  0.89337000  0.93222983  1
  O  O3780  1  0.60776067  0.06003667  0.09889650  1
  O  O3781  1  0.60776067  0.06003667  0.26556317  1
  O  O3782  1  0.60776067  0.06003667  0.43222983  1
  O  O3783  1  0.60776067  0.06003667  0.59889650  1
  O  O3784  1  0.60776067  0.06003667  0.76556317  1
  O  O3785  1  0.60776067  0.06003667  0.93222983  1
  O  O3786  1  0.60776067  0.22670333  0.09889650  1
  O  O3787  1  0.60776067  0.22670333  0.26556317  1
  O  O3788  1  0.60776067  0.22670333  0.43222983  1
  O  O3789  1  0.60776067  0.22670333  0.59889650  1
  O  O3790  1  0.60776067  0.22670333  0.76556317  1
  O  O3791  1  0.60776067  0.22670333  0.93222983  1
  O  O3792  1  0.60776067  0.39337000  0.09889650  1
  O  O3793  1  0.60776067  0.39337000  0.26556317  1
  O  O3794  1  0.60776067  0.39337000  0.43222983  1
  O  O3795  1  0.60776067  0.39337000  0.59889650  1
  O  O3796  1  0.60776067  0.39337000  0.76556317  1
  O  O3797  1  0.60776067  0.39337000  0.93222983  1
  O  O3798  1  0.60776067  0.56003667  0.09889650  1
  O  O3799  1  0.60776067  0.56003667  0.26556317  1
  O  O3800  1  0.60776067  0.56003667  0.43222983  1
  O  O3801  1  0.60776067  0.56003667  0.59889650  1
  O  O3802  1  0.60776067  0.56003667  0.76556317  1
  O  O3803  1  0.60776067  0.56003667  0.93222983  1
  O  O3804  1  0.60776067  0.72670333  0.09889650  1
  O  O3805  1  0.60776067  0.72670333  0.26556317  1
  O  O3806  1  0.60776067  0.72670333  0.43222983  1
  O  O3807  1  0.60776067  0.72670333  0.59889650  1
  O  O3808  1  0.60776067  0.72670333  0.76556317  1
  O  O3809  1  0.60776067  0.72670333  0.93222983  1
  O  O3810  1  0.60776067  0.89337000  0.09889650  1
  O  O3811  1  0.60776067  0.89337000  0.26556317  1
  O  O3812  1  0.60776067  0.89337000  0.43222983  1
  O  O3813  1  0.60776067  0.89337000  0.59889650  1
  O  O3814  1  0.60776067  0.89337000  0.76556317  1
  O  O3815  1  0.60776067  0.89337000  0.93222983  1
  O  O3816  1  0.77442733  0.06003667  0.09889650  1
  O  O3817  1  0.77442733  0.06003667  0.26556317  1
  O  O3818  1  0.77442733  0.06003667  0.43222983  1
  O  O3819  1  0.77442733  0.06003667  0.59889650  1
  O  O3820  1  0.77442733  0.06003667  0.76556317  1
  O  O3821  1  0.77442733  0.06003667  0.93222983  1
  O  O3822  1  0.77442733  0.22670333  0.09889650  1
  O  O3823  1  0.77442733  0.22670333  0.26556317  1
  O  O3824  1  0.77442733  0.22670333  0.43222983  1
  O  O3825  1  0.77442733  0.22670333  0.59889650  1
  O  O3826  1  0.77442733  0.22670333  0.76556317  1
  O  O3827  1  0.77442733  0.22670333  0.93222983  1
  O  O3828  1  0.77442733  0.39337000  0.09889650  1
  O  O3829  1  0.77442733  0.39337000  0.26556317  1
  O  O3830  1  0.77442733  0.39337000  0.43222983  1
  O  O3831  1  0.77442733  0.39337000  0.59889650  1
  O  O3832  1  0.77442733  0.39337000  0.76556317  1
  O  O3833  1  0.77442733  0.39337000  0.93222983  1
  O  O3834  1  0.77442733  0.56003667  0.09889650  1
  O  O3835  1  0.77442733  0.56003667  0.26556317  1
  O  O3836  1  0.77442733  0.56003667  0.43222983  1
  O  O3837  1  0.77442733  0.56003667  0.59889650  1
  O  O3838  1  0.77442733  0.56003667  0.76556317  1
  O  O3839  1  0.77442733  0.56003667  0.93222983  1
  O  O3840  1  0.77442733  0.72670333  0.09889650  1
  O  O3841  1  0.77442733  0.72670333  0.26556317  1
  O  O3842  1  0.77442733  0.72670333  0.43222983  1
  O  O3843  1  0.77442733  0.72670333  0.59889650  1
  O  O3844  1  0.77442733  0.72670333  0.76556317  1
  O  O3845  1  0.77442733  0.72670333  0.93222983  1
  O  O3846  1  0.77442733  0.89337000  0.09889650  1
  O  O3847  1  0.77442733  0.89337000  0.26556317  1
  O  O3848  1  0.77442733  0.89337000  0.43222983  1
  O  O3849  1  0.77442733  0.89337000  0.59889650  1
  O  O3850  1  0.77442733  0.89337000  0.76556317  1
  O  O3851  1  0.77442733  0.89337000  0.93222983  1
  O  O3852  1  0.94109400  0.06003667  0.09889650  1
  O  O3853  1  0.94109400  0.06003667  0.26556317  1
  O  O3854  1  0.94109400  0.06003667  0.43222983  1
  O  O3855  1  0.94109400  0.06003667  0.59889650  1
  O  O3856  1  0.94109400  0.06003667  0.76556317  1
  O  O3857  1  0.94109400  0.06003667  0.93222983  1
  O  O3858  1  0.94109400  0.22670333  0.09889650  1
  O  O3859  1  0.94109400  0.22670333  0.26556317  1
  O  O3860  1  0.94109400  0.22670333  0.43222983  1
  O  O3861  1  0.94109400  0.22670333  0.59889650  1
  O  O3862  1  0.94109400  0.22670333  0.76556317  1
  O  O3863  1  0.94109400  0.22670333  0.93222983  1
  O  O3864  1  0.94109400  0.39337000  0.09889650  1
  O  O3865  1  0.94109400  0.39337000  0.26556317  1
  O  O3866  1  0.94109400  0.39337000  0.43222983  1
  O  O3867  1  0.94109400  0.39337000  0.59889650  1
  O  O3868  1  0.94109400  0.39337000  0.76556317  1
  O  O3869  1  0.94109400  0.39337000  0.93222983  1
  O  O3870  1  0.94109400  0.56003667  0.09889650  1
  O  O3871  1  0.94109400  0.56003667  0.26556317  1
  O  O3872  1  0.94109400  0.56003667  0.43222983  1
  O  O3873  1  0.94109400  0.56003667  0.59889650  1
  O  O3874  1  0.94109400  0.56003667  0.76556317  1
  O  O3875  1  0.94109400  0.56003667  0.93222983  1
  O  O3876  1  0.94109400  0.72670333  0.09889650  1
  O  O3877  1  0.94109400  0.72670333  0.26556317  1
  O  O3878  1  0.94109400  0.72670333  0.43222983  1
  O  O3879  1  0.94109400  0.72670333  0.59889650  1
  O  O3880  1  0.94109400  0.72670333  0.76556317  1
  O  O3881  1  0.94109400  0.72670333  0.93222983  1
  O  O3882  1  0.94109400  0.89337000  0.09889650  1
  O  O3883  1  0.94109400  0.89337000  0.26556317  1
  O  O3884  1  0.94109400  0.89337000  0.43222983  1
  O  O3885  1  0.94109400  0.89337000  0.59889650  1
  O  O3886  1  0.94109400  0.89337000  0.76556317  1
  O  O3887  1  0.94109400  0.89337000  0.93222983  1
