# generated using pymatgen
data_Li2Ta2(OF2)3
_symmetry_space_group_name_H-M   'P 1'
_cell_length_a   28.35970377
_cell_length_b   28.35970377
_cell_length_c   106.39238000
_cell_angle_alpha   90.00000000
_cell_angle_beta   90.00000000
_cell_angle_gamma   120.00000880
_symmetry_Int_Tables_number   1
_chemical_formula_structural   Li2Ta2(OF2)3
_chemical_formula_sum   'Li750 Ta750 O1125 F2250'
_cell_volume   74104.48572895
_cell_formula_units_Z   375
loop_
 _symmetry_equiv_pos_site_id
 _symmetry_equiv_pos_as_xyz
  1  'x, y, z'
loop_
 _atom_site_type_symbol
 _atom_site_label
 _atom_site_symmetry_multiplicity
 _atom_site_fract_x
 _atom_site_fract_y
 _atom_site_fract_z
 _atom_site_occupancy
  Li  Li0  1  0.08940060  0.09057360  0.02839860  1
  Li  Li1  1  0.08940060  0.09057360  0.22839860  1
  Li  Li2  1  0.08940060  0.09057360  0.42839860  1
  Li  Li3  1  0.08940060  0.09057360  0.62839860  1
  Li  Li4  1  0.08940060  0.09057360  0.82839860  1
  Li  Li5  1  0.08940060  0.29057360  0.02839860  1
  Li  Li6  1  0.08940060  0.29057360  0.22839860  1
  Li  Li7  1  0.08940060  0.29057360  0.42839860  1
  Li  Li8  1  0.08940060  0.29057360  0.62839860  1
  Li  Li9  1  0.08940060  0.29057360  0.82839860  1
  Li  Li10  1  0.08940060  0.49057360  0.02839860  1
  Li  Li11  1  0.08940060  0.49057360  0.22839860  1
  Li  Li12  1  0.08940060  0.49057360  0.42839860  1
  Li  Li13  1  0.08940060  0.49057360  0.62839860  1
  Li  Li14  1  0.08940060  0.49057360  0.82839860  1
  Li  Li15  1  0.08940060  0.69057360  0.02839860  1
  Li  Li16  1  0.08940060  0.69057360  0.22839860  1
  Li  Li17  1  0.08940060  0.69057360  0.42839860  1
  Li  Li18  1  0.08940060  0.69057360  0.62839860  1
  Li  Li19  1  0.08940060  0.69057360  0.82839860  1
  Li  Li20  1  0.08940060  0.89057360  0.02839860  1
  Li  Li21  1  0.08940060  0.89057360  0.22839860  1
  Li  Li22  1  0.08940060  0.89057360  0.42839860  1
  Li  Li23  1  0.08940060  0.89057360  0.62839860  1
  Li  Li24  1  0.08940060  0.89057360  0.82839860  1
  Li  Li25  1  0.28940060  0.09057360  0.02839860  1
  Li  Li26  1  0.28940060  0.09057360  0.22839860  1
  Li  Li27  1  0.28940060  0.09057360  0.42839860  1
  Li  Li28  1  0.28940060  0.09057360  0.62839860  1
  Li  Li29  1  0.28940060  0.09057360  0.82839860  1
  Li  Li30  1  0.28940060  0.29057360  0.02839860  1
  Li  Li31  1  0.28940060  0.29057360  0.22839860  1
  Li  Li32  1  0.28940060  0.29057360  0.42839860  1
  Li  Li33  1  0.28940060  0.29057360  0.62839860  1
  Li  Li34  1  0.28940060  0.29057360  0.82839860  1
  Li  Li35  1  0.28940060  0.49057360  0.02839860  1
  Li  Li36  1  0.28940060  0.49057360  0.22839860  1
  Li  Li37  1  0.28940060  0.49057360  0.42839860  1
  Li  Li38  1  0.28940060  0.49057360  0.62839860  1
  Li  Li39  1  0.28940060  0.49057360  0.82839860  1
  Li  Li40  1  0.28940060  0.69057360  0.02839860  1
  Li  Li41  1  0.28940060  0.69057360  0.22839860  1
  Li  Li42  1  0.28940060  0.69057360  0.42839860  1
  Li  Li43  1  0.28940060  0.69057360  0.62839860  1
  Li  Li44  1  0.28940060  0.69057360  0.82839860  1
  Li  Li45  1  0.28940060  0.89057360  0.02839860  1
  Li  Li46  1  0.28940060  0.89057360  0.22839860  1
  Li  Li47  1  0.28940060  0.89057360  0.42839860  1
  Li  Li48  1  0.28940060  0.89057360  0.62839860  1
  Li  Li49  1  0.28940060  0.89057360  0.82839860  1
  Li  Li50  1  0.48940060  0.09057360  0.02839860  1
  Li  Li51  1  0.48940060  0.09057360  0.22839860  1
  Li  Li52  1  0.48940060  0.09057360  0.42839860  1
  Li  Li53  1  0.48940060  0.09057360  0.62839860  1
  Li  Li54  1  0.48940060  0.09057360  0.82839860  1
  Li  Li55  1  0.48940060  0.29057360  0.02839860  1
  Li  Li56  1  0.48940060  0.29057360  0.22839860  1
  Li  Li57  1  0.48940060  0.29057360  0.42839860  1
  Li  Li58  1  0.48940060  0.29057360  0.62839860  1
  Li  Li59  1  0.48940060  0.29057360  0.82839860  1
  Li  Li60  1  0.48940060  0.49057360  0.02839860  1
  Li  Li61  1  0.48940060  0.49057360  0.22839860  1
  Li  Li62  1  0.48940060  0.49057360  0.42839860  1
  Li  Li63  1  0.48940060  0.49057360  0.62839860  1
  Li  Li64  1  0.48940060  0.49057360  0.82839860  1
  Li  Li65  1  0.48940060  0.69057360  0.02839860  1
  Li  Li66  1  0.48940060  0.69057360  0.22839860  1
  Li  Li67  1  0.48940060  0.69057360  0.42839860  1
  Li  Li68  1  0.48940060  0.69057360  0.62839860  1
  Li  Li69  1  0.48940060  0.69057360  0.82839860  1
  Li  Li70  1  0.48940060  0.89057360  0.02839860  1
  Li  Li71  1  0.48940060  0.89057360  0.22839860  1
  Li  Li72  1  0.48940060  0.89057360  0.42839860  1
  Li  Li73  1  0.48940060  0.89057360  0.62839860  1
  Li  Li74  1  0.48940060  0.89057360  0.82839860  1
  Li  Li75  1  0.68940060  0.09057360  0.02839860  1
  Li  Li76  1  0.68940060  0.09057360  0.22839860  1
  Li  Li77  1  0.68940060  0.09057360  0.42839860  1
  Li  Li78  1  0.68940060  0.09057360  0.62839860  1
  Li  Li79  1  0.68940060  0.09057360  0.82839860  1
  Li  Li80  1  0.68940060  0.29057360  0.02839860  1
  Li  Li81  1  0.68940060  0.29057360  0.22839860  1
  Li  Li82  1  0.68940060  0.29057360  0.42839860  1
  Li  Li83  1  0.68940060  0.29057360  0.62839860  1
  Li  Li84  1  0.68940060  0.29057360  0.82839860  1
  Li  Li85  1  0.68940060  0.49057360  0.02839860  1
  Li  Li86  1  0.68940060  0.49057360  0.22839860  1
  Li  Li87  1  0.68940060  0.49057360  0.42839860  1
  Li  Li88  1  0.68940060  0.49057360  0.62839860  1
  Li  Li89  1  0.68940060  0.49057360  0.82839860  1
  Li  Li90  1  0.68940060  0.69057360  0.02839860  1
  Li  Li91  1  0.68940060  0.69057360  0.22839860  1
  Li  Li92  1  0.68940060  0.69057360  0.42839860  1
  Li  Li93  1  0.68940060  0.69057360  0.62839860  1
  Li  Li94  1  0.68940060  0.69057360  0.82839860  1
  Li  Li95  1  0.68940060  0.89057360  0.02839860  1
  Li  Li96  1  0.68940060  0.89057360  0.22839860  1
  Li  Li97  1  0.68940060  0.89057360  0.42839860  1
  Li  Li98  1  0.68940060  0.89057360  0.62839860  1
  Li  Li99  1  0.68940060  0.89057360  0.82839860  1
  Li  Li100  1  0.88940060  0.09057360  0.02839860  1
  Li  Li101  1  0.88940060  0.09057360  0.22839860  1
  Li  Li102  1  0.88940060  0.09057360  0.42839860  1
  Li  Li103  1  0.88940060  0.09057360  0.62839860  1
  Li  Li104  1  0.88940060  0.09057360  0.82839860  1
  Li  Li105  1  0.88940060  0.29057360  0.02839860  1
  Li  Li106  1  0.88940060  0.29057360  0.22839860  1
  Li  Li107  1  0.88940060  0.29057360  0.42839860  1
  Li  Li108  1  0.88940060  0.29057360  0.62839860  1
  Li  Li109  1  0.88940060  0.29057360  0.82839860  1
  Li  Li110  1  0.88940060  0.49057360  0.02839860  1
  Li  Li111  1  0.88940060  0.49057360  0.22839860  1
  Li  Li112  1  0.88940060  0.49057360  0.42839860  1
  Li  Li113  1  0.88940060  0.49057360  0.62839860  1
  Li  Li114  1  0.88940060  0.49057360  0.82839860  1
  Li  Li115  1  0.88940060  0.69057360  0.02839860  1
  Li  Li116  1  0.88940060  0.69057360  0.22839860  1
  Li  Li117  1  0.88940060  0.69057360  0.42839860  1
  Li  Li118  1  0.88940060  0.69057360  0.62839860  1
  Li  Li119  1  0.88940060  0.69057360  0.82839860  1
  Li  Li120  1  0.88940060  0.89057360  0.02839860  1
  Li  Li121  1  0.88940060  0.89057360  0.22839860  1
  Li  Li122  1  0.88940060  0.89057360  0.42839860  1
  Li  Li123  1  0.88940060  0.89057360  0.62839860  1
  Li  Li124  1  0.88940060  0.89057360  0.82839860  1
  Li  Li125  1  0.19882720  0.10942640  0.10493460  1
  Li  Li126  1  0.19882720  0.10942640  0.30493460  1
  Li  Li127  1  0.19882720  0.10942640  0.50493460  1
  Li  Li128  1  0.19882720  0.10942640  0.70493460  1
  Li  Li129  1  0.19882720  0.10942640  0.90493460  1
  Li  Li130  1  0.19882720  0.30942640  0.10493460  1
  Li  Li131  1  0.19882720  0.30942640  0.30493460  1
  Li  Li132  1  0.19882720  0.30942640  0.50493460  1
  Li  Li133  1  0.19882720  0.30942640  0.70493460  1
  Li  Li134  1  0.19882720  0.30942640  0.90493460  1
  Li  Li135  1  0.19882720  0.50942640  0.10493460  1
  Li  Li136  1  0.19882720  0.50942640  0.30493460  1
  Li  Li137  1  0.19882720  0.50942640  0.50493460  1
  Li  Li138  1  0.19882720  0.50942640  0.70493460  1
  Li  Li139  1  0.19882720  0.50942640  0.90493460  1
  Li  Li140  1  0.19882720  0.70942640  0.10493460  1
  Li  Li141  1  0.19882720  0.70942640  0.30493460  1
  Li  Li142  1  0.19882720  0.70942640  0.50493460  1
  Li  Li143  1  0.19882720  0.70942640  0.70493460  1
  Li  Li144  1  0.19882720  0.70942640  0.90493460  1
  Li  Li145  1  0.19882720  0.90942640  0.10493460  1
  Li  Li146  1  0.19882720  0.90942640  0.30493460  1
  Li  Li147  1  0.19882720  0.90942640  0.50493460  1
  Li  Li148  1  0.19882720  0.90942640  0.70493460  1
  Li  Li149  1  0.19882720  0.90942640  0.90493460  1
  Li  Li150  1  0.39882720  0.10942640  0.10493460  1
  Li  Li151  1  0.39882720  0.10942640  0.30493460  1
  Li  Li152  1  0.39882720  0.10942640  0.50493460  1
  Li  Li153  1  0.39882720  0.10942640  0.70493460  1
  Li  Li154  1  0.39882720  0.10942640  0.90493460  1
  Li  Li155  1  0.39882720  0.30942640  0.10493460  1
  Li  Li156  1  0.39882720  0.30942640  0.30493460  1
  Li  Li157  1  0.39882720  0.30942640  0.50493460  1
  Li  Li158  1  0.39882720  0.30942640  0.70493460  1
  Li  Li159  1  0.39882720  0.30942640  0.90493460  1
  Li  Li160  1  0.39882720  0.50942640  0.10493460  1
  Li  Li161  1  0.39882720  0.50942640  0.30493460  1
  Li  Li162  1  0.39882720  0.50942640  0.50493460  1
  Li  Li163  1  0.39882720  0.50942640  0.70493460  1
  Li  Li164  1  0.39882720  0.50942640  0.90493460  1
  Li  Li165  1  0.39882720  0.70942640  0.10493460  1
  Li  Li166  1  0.39882720  0.70942640  0.30493460  1
  Li  Li167  1  0.39882720  0.70942640  0.50493460  1
  Li  Li168  1  0.39882720  0.70942640  0.70493460  1
  Li  Li169  1  0.39882720  0.70942640  0.90493460  1
  Li  Li170  1  0.39882720  0.90942640  0.10493460  1
  Li  Li171  1  0.39882720  0.90942640  0.30493460  1
  Li  Li172  1  0.39882720  0.90942640  0.50493460  1
  Li  Li173  1  0.39882720  0.90942640  0.70493460  1
  Li  Li174  1  0.39882720  0.90942640  0.90493460  1
  Li  Li175  1  0.59882720  0.10942640  0.10493460  1
  Li  Li176  1  0.59882720  0.10942640  0.30493460  1
  Li  Li177  1  0.59882720  0.10942640  0.50493460  1
  Li  Li178  1  0.59882720  0.10942640  0.70493460  1
  Li  Li179  1  0.59882720  0.10942640  0.90493460  1
  Li  Li180  1  0.59882720  0.30942640  0.10493460  1
  Li  Li181  1  0.59882720  0.30942640  0.30493460  1
  Li  Li182  1  0.59882720  0.30942640  0.50493460  1
  Li  Li183  1  0.59882720  0.30942640  0.70493460  1
  Li  Li184  1  0.59882720  0.30942640  0.90493460  1
  Li  Li185  1  0.59882720  0.50942640  0.10493460  1
  Li  Li186  1  0.59882720  0.50942640  0.30493460  1
  Li  Li187  1  0.59882720  0.50942640  0.50493460  1
  Li  Li188  1  0.59882720  0.50942640  0.70493460  1
  Li  Li189  1  0.59882720  0.50942640  0.90493460  1
  Li  Li190  1  0.59882720  0.70942640  0.10493460  1
  Li  Li191  1  0.59882720  0.70942640  0.30493460  1
  Li  Li192  1  0.59882720  0.70942640  0.50493460  1
  Li  Li193  1  0.59882720  0.70942640  0.70493460  1
  Li  Li194  1  0.59882720  0.70942640  0.90493460  1
  Li  Li195  1  0.59882720  0.90942640  0.10493460  1
  Li  Li196  1  0.59882720  0.90942640  0.30493460  1
  Li  Li197  1  0.59882720  0.90942640  0.50493460  1
  Li  Li198  1  0.59882720  0.90942640  0.70493460  1
  Li  Li199  1  0.59882720  0.90942640  0.90493460  1
  Li  Li200  1  0.79882720  0.10942640  0.10493460  1
  Li  Li201  1  0.79882720  0.10942640  0.30493460  1
  Li  Li202  1  0.79882720  0.10942640  0.50493460  1
  Li  Li203  1  0.79882720  0.10942640  0.70493460  1
  Li  Li204  1  0.79882720  0.10942640  0.90493460  1
  Li  Li205  1  0.79882720  0.30942640  0.10493460  1
  Li  Li206  1  0.79882720  0.30942640  0.30493460  1
  Li  Li207  1  0.79882720  0.30942640  0.50493460  1
  Li  Li208  1  0.79882720  0.30942640  0.70493460  1
  Li  Li209  1  0.79882720  0.30942640  0.90493460  1
  Li  Li210  1  0.79882720  0.50942640  0.10493460  1
  Li  Li211  1  0.79882720  0.50942640  0.30493460  1
  Li  Li212  1  0.79882720  0.50942640  0.50493460  1
  Li  Li213  1  0.79882720  0.50942640  0.70493460  1
  Li  Li214  1  0.79882720  0.50942640  0.90493460  1
  Li  Li215  1  0.79882720  0.70942640  0.10493460  1
  Li  Li216  1  0.79882720  0.70942640  0.30493460  1
  Li  Li217  1  0.79882720  0.70942640  0.50493460  1
  Li  Li218  1  0.79882720  0.70942640  0.70493460  1
  Li  Li219  1  0.79882720  0.70942640  0.90493460  1
  Li  Li220  1  0.79882720  0.90942640  0.10493460  1
  Li  Li221  1  0.79882720  0.90942640  0.30493460  1
  Li  Li222  1  0.79882720  0.90942640  0.50493460  1
  Li  Li223  1  0.79882720  0.90942640  0.70493460  1
  Li  Li224  1  0.79882720  0.90942640  0.90493460  1
  Li  Li225  1  0.99882720  0.10942640  0.10493460  1
  Li  Li226  1  0.99882720  0.10942640  0.30493460  1
  Li  Li227  1  0.99882720  0.10942640  0.50493460  1
  Li  Li228  1  0.99882720  0.10942640  0.70493460  1
  Li  Li229  1  0.99882720  0.10942640  0.90493460  1
  Li  Li230  1  0.99882720  0.30942640  0.10493460  1
  Li  Li231  1  0.99882720  0.30942640  0.30493460  1
  Li  Li232  1  0.99882720  0.30942640  0.50493460  1
  Li  Li233  1  0.99882720  0.30942640  0.70493460  1
  Li  Li234  1  0.99882720  0.30942640  0.90493460  1
  Li  Li235  1  0.99882720  0.50942640  0.10493460  1
  Li  Li236  1  0.99882720  0.50942640  0.30493460  1
  Li  Li237  1  0.99882720  0.50942640  0.50493460  1
  Li  Li238  1  0.99882720  0.50942640  0.70493460  1
  Li  Li239  1  0.99882720  0.50942640  0.90493460  1
  Li  Li240  1  0.99882720  0.70942640  0.10493460  1
  Li  Li241  1  0.99882720  0.70942640  0.30493460  1
  Li  Li242  1  0.99882720  0.70942640  0.50493460  1
  Li  Li243  1  0.99882720  0.70942640  0.70493460  1
  Li  Li244  1  0.99882720  0.70942640  0.90493460  1
  Li  Li245  1  0.99882720  0.90942640  0.10493460  1
  Li  Li246  1  0.99882720  0.90942640  0.30493460  1
  Li  Li247  1  0.99882720  0.90942640  0.50493460  1
  Li  Li248  1  0.99882720  0.90942640  0.70493460  1
  Li  Li249  1  0.99882720  0.90942640  0.90493460  1
  Li  Li250  1  0.09057360  0.08940060  0.17160140  1
  Li  Li251  1  0.09057360  0.08940060  0.37160140  1
  Li  Li252  1  0.09057360  0.08940060  0.57160140  1
  Li  Li253  1  0.09057360  0.08940060  0.77160140  1
  Li  Li254  1  0.09057360  0.08940060  0.97160140  1
  Li  Li255  1  0.09057360  0.28940060  0.17160140  1
  Li  Li256  1  0.09057360  0.28940060  0.37160140  1
  Li  Li257  1  0.09057360  0.28940060  0.57160140  1
  Li  Li258  1  0.09057360  0.28940060  0.77160140  1
  Li  Li259  1  0.09057360  0.28940060  0.97160140  1
  Li  Li260  1  0.09057360  0.48940060  0.17160140  1
  Li  Li261  1  0.09057360  0.48940060  0.37160140  1
  Li  Li262  1  0.09057360  0.48940060  0.57160140  1
  Li  Li263  1  0.09057360  0.48940060  0.77160140  1
  Li  Li264  1  0.09057360  0.48940060  0.97160140  1
  Li  Li265  1  0.09057360  0.68940060  0.17160140  1
  Li  Li266  1  0.09057360  0.68940060  0.37160140  1
  Li  Li267  1  0.09057360  0.68940060  0.57160140  1
  Li  Li268  1  0.09057360  0.68940060  0.77160140  1
  Li  Li269  1  0.09057360  0.68940060  0.97160140  1
  Li  Li270  1  0.09057360  0.88940060  0.17160140  1
  Li  Li271  1  0.09057360  0.88940060  0.37160140  1
  Li  Li272  1  0.09057360  0.88940060  0.57160140  1
  Li  Li273  1  0.09057360  0.88940060  0.77160140  1
  Li  Li274  1  0.09057360  0.88940060  0.97160140  1
  Li  Li275  1  0.29057360  0.08940060  0.17160140  1
  Li  Li276  1  0.29057360  0.08940060  0.37160140  1
  Li  Li277  1  0.29057360  0.08940060  0.57160140  1
  Li  Li278  1  0.29057360  0.08940060  0.77160140  1
  Li  Li279  1  0.29057360  0.08940060  0.97160140  1
  Li  Li280  1  0.29057360  0.28940060  0.17160140  1
  Li  Li281  1  0.29057360  0.28940060  0.37160140  1
  Li  Li282  1  0.29057360  0.28940060  0.57160140  1
  Li  Li283  1  0.29057360  0.28940060  0.77160140  1
  Li  Li284  1  0.29057360  0.28940060  0.97160140  1
  Li  Li285  1  0.29057360  0.48940060  0.17160140  1
  Li  Li286  1  0.29057360  0.48940060  0.37160140  1
  Li  Li287  1  0.29057360  0.48940060  0.57160140  1
  Li  Li288  1  0.29057360  0.48940060  0.77160140  1
  Li  Li289  1  0.29057360  0.48940060  0.97160140  1
  Li  Li290  1  0.29057360  0.68940060  0.17160140  1
  Li  Li291  1  0.29057360  0.68940060  0.37160140  1
  Li  Li292  1  0.29057360  0.68940060  0.57160140  1
  Li  Li293  1  0.29057360  0.68940060  0.77160140  1
  Li  Li294  1  0.29057360  0.68940060  0.97160140  1
  Li  Li295  1  0.29057360  0.88940060  0.17160140  1
  Li  Li296  1  0.29057360  0.88940060  0.37160140  1
  Li  Li297  1  0.29057360  0.88940060  0.57160140  1
  Li  Li298  1  0.29057360  0.88940060  0.77160140  1
  Li  Li299  1  0.29057360  0.88940060  0.97160140  1
  Li  Li300  1  0.49057360  0.08940060  0.17160140  1
  Li  Li301  1  0.49057360  0.08940060  0.37160140  1
  Li  Li302  1  0.49057360  0.08940060  0.57160140  1
  Li  Li303  1  0.49057360  0.08940060  0.77160140  1
  Li  Li304  1  0.49057360  0.08940060  0.97160140  1
  Li  Li305  1  0.49057360  0.28940060  0.17160140  1
  Li  Li306  1  0.49057360  0.28940060  0.37160140  1
  Li  Li307  1  0.49057360  0.28940060  0.57160140  1
  Li  Li308  1  0.49057360  0.28940060  0.77160140  1
  Li  Li309  1  0.49057360  0.28940060  0.97160140  1
  Li  Li310  1  0.49057360  0.48940060  0.17160140  1
  Li  Li311  1  0.49057360  0.48940060  0.37160140  1
  Li  Li312  1  0.49057360  0.48940060  0.57160140  1
  Li  Li313  1  0.49057360  0.48940060  0.77160140  1
  Li  Li314  1  0.49057360  0.48940060  0.97160140  1
  Li  Li315  1  0.49057360  0.68940060  0.17160140  1
  Li  Li316  1  0.49057360  0.68940060  0.37160140  1
  Li  Li317  1  0.49057360  0.68940060  0.57160140  1
  Li  Li318  1  0.49057360  0.68940060  0.77160140  1
  Li  Li319  1  0.49057360  0.68940060  0.97160140  1
  Li  Li320  1  0.49057360  0.88940060  0.17160140  1
  Li  Li321  1  0.49057360  0.88940060  0.37160140  1
  Li  Li322  1  0.49057360  0.88940060  0.57160140  1
  Li  Li323  1  0.49057360  0.88940060  0.77160140  1
  Li  Li324  1  0.49057360  0.88940060  0.97160140  1
  Li  Li325  1  0.69057360  0.08940060  0.17160140  1
  Li  Li326  1  0.69057360  0.08940060  0.37160140  1
  Li  Li327  1  0.69057360  0.08940060  0.57160140  1
  Li  Li328  1  0.69057360  0.08940060  0.77160140  1
  Li  Li329  1  0.69057360  0.08940060  0.97160140  1
  Li  Li330  1  0.69057360  0.28940060  0.17160140  1
  Li  Li331  1  0.69057360  0.28940060  0.37160140  1
  Li  Li332  1  0.69057360  0.28940060  0.57160140  1
  Li  Li333  1  0.69057360  0.28940060  0.77160140  1
  Li  Li334  1  0.69057360  0.28940060  0.97160140  1
  Li  Li335  1  0.69057360  0.48940060  0.17160140  1
  Li  Li336  1  0.69057360  0.48940060  0.37160140  1
  Li  Li337  1  0.69057360  0.48940060  0.57160140  1
  Li  Li338  1  0.69057360  0.48940060  0.77160140  1
  Li  Li339  1  0.69057360  0.48940060  0.97160140  1
  Li  Li340  1  0.69057360  0.68940060  0.17160140  1
  Li  Li341  1  0.69057360  0.68940060  0.37160140  1
  Li  Li342  1  0.69057360  0.68940060  0.57160140  1
  Li  Li343  1  0.69057360  0.68940060  0.77160140  1
  Li  Li344  1  0.69057360  0.68940060  0.97160140  1
  Li  Li345  1  0.69057360  0.88940060  0.17160140  1
  Li  Li346  1  0.69057360  0.88940060  0.37160140  1
  Li  Li347  1  0.69057360  0.88940060  0.57160140  1
  Li  Li348  1  0.69057360  0.88940060  0.77160140  1
  Li  Li349  1  0.69057360  0.88940060  0.97160140  1
  Li  Li350  1  0.89057360  0.08940060  0.17160140  1
  Li  Li351  1  0.89057360  0.08940060  0.37160140  1
  Li  Li352  1  0.89057360  0.08940060  0.57160140  1
  Li  Li353  1  0.89057360  0.08940060  0.77160140  1
  Li  Li354  1  0.89057360  0.08940060  0.97160140  1
  Li  Li355  1  0.89057360  0.28940060  0.17160140  1
  Li  Li356  1  0.89057360  0.28940060  0.37160140  1
  Li  Li357  1  0.89057360  0.28940060  0.57160140  1
  Li  Li358  1  0.89057360  0.28940060  0.77160140  1
  Li  Li359  1  0.89057360  0.28940060  0.97160140  1
  Li  Li360  1  0.89057360  0.48940060  0.17160140  1
  Li  Li361  1  0.89057360  0.48940060  0.37160140  1
  Li  Li362  1  0.89057360  0.48940060  0.57160140  1
  Li  Li363  1  0.89057360  0.48940060  0.77160140  1
  Li  Li364  1  0.89057360  0.48940060  0.97160140  1
  Li  Li365  1  0.89057360  0.68940060  0.17160140  1
  Li  Li366  1  0.89057360  0.68940060  0.37160140  1
  Li  Li367  1  0.89057360  0.68940060  0.57160140  1
  Li  Li368  1  0.89057360  0.68940060  0.77160140  1
  Li  Li369  1  0.89057360  0.68940060  0.97160140  1
  Li  Li370  1  0.89057360  0.88940060  0.17160140  1
  Li  Li371  1  0.89057360  0.88940060  0.37160140  1
  Li  Li372  1  0.89057360  0.88940060  0.57160140  1
  Li  Li373  1  0.89057360  0.88940060  0.77160140  1
  Li  Li374  1  0.89057360  0.88940060  0.97160140  1
  Li  Li375  1  0.10942640  0.19882720  0.09506540  1
  Li  Li376  1  0.10942640  0.19882720  0.29506540  1
  Li  Li377  1  0.10942640  0.19882720  0.49506540  1
  Li  Li378  1  0.10942640  0.19882720  0.69506540  1
  Li  Li379  1  0.10942640  0.19882720  0.89506540  1
  Li  Li380  1  0.10942640  0.39882720  0.09506540  1
  Li  Li381  1  0.10942640  0.39882720  0.29506540  1
  Li  Li382  1  0.10942640  0.39882720  0.49506540  1
  Li  Li383  1  0.10942640  0.39882720  0.69506540  1
  Li  Li384  1  0.10942640  0.39882720  0.89506540  1
  Li  Li385  1  0.10942640  0.59882720  0.09506540  1
  Li  Li386  1  0.10942640  0.59882720  0.29506540  1
  Li  Li387  1  0.10942640  0.59882720  0.49506540  1
  Li  Li388  1  0.10942640  0.59882720  0.69506540  1
  Li  Li389  1  0.10942640  0.59882720  0.89506540  1
  Li  Li390  1  0.10942640  0.79882720  0.09506540  1
  Li  Li391  1  0.10942640  0.79882720  0.29506540  1
  Li  Li392  1  0.10942640  0.79882720  0.49506540  1
  Li  Li393  1  0.10942640  0.79882720  0.69506540  1
  Li  Li394  1  0.10942640  0.79882720  0.89506540  1
  Li  Li395  1  0.10942640  0.99882720  0.09506540  1
  Li  Li396  1  0.10942640  0.99882720  0.29506540  1
  Li  Li397  1  0.10942640  0.99882720  0.49506540  1
  Li  Li398  1  0.10942640  0.99882720  0.69506540  1
  Li  Li399  1  0.10942640  0.99882720  0.89506540  1
  Li  Li400  1  0.30942640  0.19882720  0.09506540  1
  Li  Li401  1  0.30942640  0.19882720  0.29506540  1
  Li  Li402  1  0.30942640  0.19882720  0.49506540  1
  Li  Li403  1  0.30942640  0.19882720  0.69506540  1
  Li  Li404  1  0.30942640  0.19882720  0.89506540  1
  Li  Li405  1  0.30942640  0.39882720  0.09506540  1
  Li  Li406  1  0.30942640  0.39882720  0.29506540  1
  Li  Li407  1  0.30942640  0.39882720  0.49506540  1
  Li  Li408  1  0.30942640  0.39882720  0.69506540  1
  Li  Li409  1  0.30942640  0.39882720  0.89506540  1
  Li  Li410  1  0.30942640  0.59882720  0.09506540  1
  Li  Li411  1  0.30942640  0.59882720  0.29506540  1
  Li  Li412  1  0.30942640  0.59882720  0.49506540  1
  Li  Li413  1  0.30942640  0.59882720  0.69506540  1
  Li  Li414  1  0.30942640  0.59882720  0.89506540  1
  Li  Li415  1  0.30942640  0.79882720  0.09506540  1
  Li  Li416  1  0.30942640  0.79882720  0.29506540  1
  Li  Li417  1  0.30942640  0.79882720  0.49506540  1
  Li  Li418  1  0.30942640  0.79882720  0.69506540  1
  Li  Li419  1  0.30942640  0.79882720  0.89506540  1
  Li  Li420  1  0.30942640  0.99882720  0.09506540  1
  Li  Li421  1  0.30942640  0.99882720  0.29506540  1
  Li  Li422  1  0.30942640  0.99882720  0.49506540  1
  Li  Li423  1  0.30942640  0.99882720  0.69506540  1
  Li  Li424  1  0.30942640  0.99882720  0.89506540  1
  Li  Li425  1  0.50942640  0.19882720  0.09506540  1
  Li  Li426  1  0.50942640  0.19882720  0.29506540  1
  Li  Li427  1  0.50942640  0.19882720  0.49506540  1
  Li  Li428  1  0.50942640  0.19882720  0.69506540  1
  Li  Li429  1  0.50942640  0.19882720  0.89506540  1
  Li  Li430  1  0.50942640  0.39882720  0.09506540  1
  Li  Li431  1  0.50942640  0.39882720  0.29506540  1
  Li  Li432  1  0.50942640  0.39882720  0.49506540  1
  Li  Li433  1  0.50942640  0.39882720  0.69506540  1
  Li  Li434  1  0.50942640  0.39882720  0.89506540  1
  Li  Li435  1  0.50942640  0.59882720  0.09506540  1
  Li  Li436  1  0.50942640  0.59882720  0.29506540  1
  Li  Li437  1  0.50942640  0.59882720  0.49506540  1
  Li  Li438  1  0.50942640  0.59882720  0.69506540  1
  Li  Li439  1  0.50942640  0.59882720  0.89506540  1
  Li  Li440  1  0.50942640  0.79882720  0.09506540  1
  Li  Li441  1  0.50942640  0.79882720  0.29506540  1
  Li  Li442  1  0.50942640  0.79882720  0.49506540  1
  Li  Li443  1  0.50942640  0.79882720  0.69506540  1
  Li  Li444  1  0.50942640  0.79882720  0.89506540  1
  Li  Li445  1  0.50942640  0.99882720  0.09506540  1
  Li  Li446  1  0.50942640  0.99882720  0.29506540  1
  Li  Li447  1  0.50942640  0.99882720  0.49506540  1
  Li  Li448  1  0.50942640  0.99882720  0.69506540  1
  Li  Li449  1  0.50942640  0.99882720  0.89506540  1
  Li  Li450  1  0.70942640  0.19882720  0.09506540  1
  Li  Li451  1  0.70942640  0.19882720  0.29506540  1
  Li  Li452  1  0.70942640  0.19882720  0.49506540  1
  Li  Li453  1  0.70942640  0.19882720  0.69506540  1
  Li  Li454  1  0.70942640  0.19882720  0.89506540  1
  Li  Li455  1  0.70942640  0.39882720  0.09506540  1
  Li  Li456  1  0.70942640  0.39882720  0.29506540  1
  Li  Li457  1  0.70942640  0.39882720  0.49506540  1
  Li  Li458  1  0.70942640  0.39882720  0.69506540  1
  Li  Li459  1  0.70942640  0.39882720  0.89506540  1
  Li  Li460  1  0.70942640  0.59882720  0.09506540  1
  Li  Li461  1  0.70942640  0.59882720  0.29506540  1
  Li  Li462  1  0.70942640  0.59882720  0.49506540  1
  Li  Li463  1  0.70942640  0.59882720  0.69506540  1
  Li  Li464  1  0.70942640  0.59882720  0.89506540  1
  Li  Li465  1  0.70942640  0.79882720  0.09506540  1
  Li  Li466  1  0.70942640  0.79882720  0.29506540  1
  Li  Li467  1  0.70942640  0.79882720  0.49506540  1
  Li  Li468  1  0.70942640  0.79882720  0.69506540  1
  Li  Li469  1  0.70942640  0.79882720  0.89506540  1
  Li  Li470  1  0.70942640  0.99882720  0.09506540  1
  Li  Li471  1  0.70942640  0.99882720  0.29506540  1
  Li  Li472  1  0.70942640  0.99882720  0.49506540  1
  Li  Li473  1  0.70942640  0.99882720  0.69506540  1
  Li  Li474  1  0.70942640  0.99882720  0.89506540  1
  Li  Li475  1  0.90942640  0.19882720  0.09506540  1
  Li  Li476  1  0.90942640  0.19882720  0.29506540  1
  Li  Li477  1  0.90942640  0.19882720  0.49506540  1
  Li  Li478  1  0.90942640  0.19882720  0.69506540  1
  Li  Li479  1  0.90942640  0.19882720  0.89506540  1
  Li  Li480  1  0.90942640  0.39882720  0.09506540  1
  Li  Li481  1  0.90942640  0.39882720  0.29506540  1
  Li  Li482  1  0.90942640  0.39882720  0.49506540  1
  Li  Li483  1  0.90942640  0.39882720  0.69506540  1
  Li  Li484  1  0.90942640  0.39882720  0.89506540  1
  Li  Li485  1  0.90942640  0.59882720  0.09506540  1
  Li  Li486  1  0.90942640  0.59882720  0.29506540  1
  Li  Li487  1  0.90942640  0.59882720  0.49506540  1
  Li  Li488  1  0.90942640  0.59882720  0.69506540  1
  Li  Li489  1  0.90942640  0.59882720  0.89506540  1
  Li  Li490  1  0.90942640  0.79882720  0.09506540  1
  Li  Li491  1  0.90942640  0.79882720  0.29506540  1
  Li  Li492  1  0.90942640  0.79882720  0.49506540  1
  Li  Li493  1  0.90942640  0.79882720  0.69506540  1
  Li  Li494  1  0.90942640  0.79882720  0.89506540  1
  Li  Li495  1  0.90942640  0.99882720  0.09506540  1
  Li  Li496  1  0.90942640  0.99882720  0.29506540  1
  Li  Li497  1  0.90942640  0.99882720  0.49506540  1
  Li  Li498  1  0.90942640  0.99882720  0.69506540  1
  Li  Li499  1  0.90942640  0.99882720  0.89506540  1
  Li  Li500  1  0.11059940  0.00117280  0.03826800  1
  Li  Li501  1  0.11059940  0.00117280  0.23826800  1
  Li  Li502  1  0.11059940  0.00117280  0.43826800  1
  Li  Li503  1  0.11059940  0.00117280  0.63826800  1
  Li  Li504  1  0.11059940  0.00117280  0.83826800  1
  Li  Li505  1  0.11059940  0.20117280  0.03826800  1
  Li  Li506  1  0.11059940  0.20117280  0.23826800  1
  Li  Li507  1  0.11059940  0.20117280  0.43826800  1
  Li  Li508  1  0.11059940  0.20117280  0.63826800  1
  Li  Li509  1  0.11059940  0.20117280  0.83826800  1
  Li  Li510  1  0.11059940  0.40117280  0.03826800  1
  Li  Li511  1  0.11059940  0.40117280  0.23826800  1
  Li  Li512  1  0.11059940  0.40117280  0.43826800  1
  Li  Li513  1  0.11059940  0.40117280  0.63826800  1
  Li  Li514  1  0.11059940  0.40117280  0.83826800  1
  Li  Li515  1  0.11059940  0.60117280  0.03826800  1
  Li  Li516  1  0.11059940  0.60117280  0.23826800  1
  Li  Li517  1  0.11059940  0.60117280  0.43826800  1
  Li  Li518  1  0.11059940  0.60117280  0.63826800  1
  Li  Li519  1  0.11059940  0.60117280  0.83826800  1
  Li  Li520  1  0.11059940  0.80117280  0.03826800  1
  Li  Li521  1  0.11059940  0.80117280  0.23826800  1
  Li  Li522  1  0.11059940  0.80117280  0.43826800  1
  Li  Li523  1  0.11059940  0.80117280  0.63826800  1
  Li  Li524  1  0.11059940  0.80117280  0.83826800  1
  Li  Li525  1  0.31059940  0.00117280  0.03826800  1
  Li  Li526  1  0.31059940  0.00117280  0.23826800  1
  Li  Li527  1  0.31059940  0.00117280  0.43826800  1
  Li  Li528  1  0.31059940  0.00117280  0.63826800  1
  Li  Li529  1  0.31059940  0.00117280  0.83826800  1
  Li  Li530  1  0.31059940  0.20117280  0.03826800  1
  Li  Li531  1  0.31059940  0.20117280  0.23826800  1
  Li  Li532  1  0.31059940  0.20117280  0.43826800  1
  Li  Li533  1  0.31059940  0.20117280  0.63826800  1
  Li  Li534  1  0.31059940  0.20117280  0.83826800  1
  Li  Li535  1  0.31059940  0.40117280  0.03826800  1
  Li  Li536  1  0.31059940  0.40117280  0.23826800  1
  Li  Li537  1  0.31059940  0.40117280  0.43826800  1
  Li  Li538  1  0.31059940  0.40117280  0.63826800  1
  Li  Li539  1  0.31059940  0.40117280  0.83826800  1
  Li  Li540  1  0.31059940  0.60117280  0.03826800  1
  Li  Li541  1  0.31059940  0.60117280  0.23826800  1
  Li  Li542  1  0.31059940  0.60117280  0.43826800  1
  Li  Li543  1  0.31059940  0.60117280  0.63826800  1
  Li  Li544  1  0.31059940  0.60117280  0.83826800  1
  Li  Li545  1  0.31059940  0.80117280  0.03826800  1
  Li  Li546  1  0.31059940  0.80117280  0.23826800  1
  Li  Li547  1  0.31059940  0.80117280  0.43826800  1
  Li  Li548  1  0.31059940  0.80117280  0.63826800  1
  Li  Li549  1  0.31059940  0.80117280  0.83826800  1
  Li  Li550  1  0.51059940  0.00117280  0.03826800  1
  Li  Li551  1  0.51059940  0.00117280  0.23826800  1
  Li  Li552  1  0.51059940  0.00117280  0.43826800  1
  Li  Li553  1  0.51059940  0.00117280  0.63826800  1
  Li  Li554  1  0.51059940  0.00117280  0.83826800  1
  Li  Li555  1  0.51059940  0.20117280  0.03826800  1
  Li  Li556  1  0.51059940  0.20117280  0.23826800  1
  Li  Li557  1  0.51059940  0.20117280  0.43826800  1
  Li  Li558  1  0.51059940  0.20117280  0.63826800  1
  Li  Li559  1  0.51059940  0.20117280  0.83826800  1
  Li  Li560  1  0.51059940  0.40117280  0.03826800  1
  Li  Li561  1  0.51059940  0.40117280  0.23826800  1
  Li  Li562  1  0.51059940  0.40117280  0.43826800  1
  Li  Li563  1  0.51059940  0.40117280  0.63826800  1
  Li  Li564  1  0.51059940  0.40117280  0.83826800  1
  Li  Li565  1  0.51059940  0.60117280  0.03826800  1
  Li  Li566  1  0.51059940  0.60117280  0.23826800  1
  Li  Li567  1  0.51059940  0.60117280  0.43826800  1
  Li  Li568  1  0.51059940  0.60117280  0.63826800  1
  Li  Li569  1  0.51059940  0.60117280  0.83826800  1
  Li  Li570  1  0.51059940  0.80117280  0.03826800  1
  Li  Li571  1  0.51059940  0.80117280  0.23826800  1
  Li  Li572  1  0.51059940  0.80117280  0.43826800  1
  Li  Li573  1  0.51059940  0.80117280  0.63826800  1
  Li  Li574  1  0.51059940  0.80117280  0.83826800  1
  Li  Li575  1  0.71059940  0.00117280  0.03826800  1
  Li  Li576  1  0.71059940  0.00117280  0.23826800  1
  Li  Li577  1  0.71059940  0.00117280  0.43826800  1
  Li  Li578  1  0.71059940  0.00117280  0.63826800  1
  Li  Li579  1  0.71059940  0.00117280  0.83826800  1
  Li  Li580  1  0.71059940  0.20117280  0.03826800  1
  Li  Li581  1  0.71059940  0.20117280  0.23826800  1
  Li  Li582  1  0.71059940  0.20117280  0.43826800  1
  Li  Li583  1  0.71059940  0.20117280  0.63826800  1
  Li  Li584  1  0.71059940  0.20117280  0.83826800  1
  Li  Li585  1  0.71059940  0.40117280  0.03826800  1
  Li  Li586  1  0.71059940  0.40117280  0.23826800  1
  Li  Li587  1  0.71059940  0.40117280  0.43826800  1
  Li  Li588  1  0.71059940  0.40117280  0.63826800  1
  Li  Li589  1  0.71059940  0.40117280  0.83826800  1
  Li  Li590  1  0.71059940  0.60117280  0.03826800  1
  Li  Li591  1  0.71059940  0.60117280  0.23826800  1
  Li  Li592  1  0.71059940  0.60117280  0.43826800  1
  Li  Li593  1  0.71059940  0.60117280  0.63826800  1
  Li  Li594  1  0.71059940  0.60117280  0.83826800  1
  Li  Li595  1  0.71059940  0.80117280  0.03826800  1
  Li  Li596  1  0.71059940  0.80117280  0.23826800  1
  Li  Li597  1  0.71059940  0.80117280  0.43826800  1
  Li  Li598  1  0.71059940  0.80117280  0.63826800  1
  Li  Li599  1  0.71059940  0.80117280  0.83826800  1
  Li  Li600  1  0.91059940  0.00117280  0.03826800  1
  Li  Li601  1  0.91059940  0.00117280  0.23826800  1
  Li  Li602  1  0.91059940  0.00117280  0.43826800  1
  Li  Li603  1  0.91059940  0.00117280  0.63826800  1
  Li  Li604  1  0.91059940  0.00117280  0.83826800  1
  Li  Li605  1  0.91059940  0.20117280  0.03826800  1
  Li  Li606  1  0.91059940  0.20117280  0.23826800  1
  Li  Li607  1  0.91059940  0.20117280  0.43826800  1
  Li  Li608  1  0.91059940  0.20117280  0.63826800  1
  Li  Li609  1  0.91059940  0.20117280  0.83826800  1
  Li  Li610  1  0.91059940  0.40117280  0.03826800  1
  Li  Li611  1  0.91059940  0.40117280  0.23826800  1
  Li  Li612  1  0.91059940  0.40117280  0.43826800  1
  Li  Li613  1  0.91059940  0.40117280  0.63826800  1
  Li  Li614  1  0.91059940  0.40117280  0.83826800  1
  Li  Li615  1  0.91059940  0.60117280  0.03826800  1
  Li  Li616  1  0.91059940  0.60117280  0.23826800  1
  Li  Li617  1  0.91059940  0.60117280  0.43826800  1
  Li  Li618  1  0.91059940  0.60117280  0.63826800  1
  Li  Li619  1  0.91059940  0.60117280  0.83826800  1
  Li  Li620  1  0.91059940  0.80117280  0.03826800  1
  Li  Li621  1  0.91059940  0.80117280  0.23826800  1
  Li  Li622  1  0.91059940  0.80117280  0.43826800  1
  Li  Li623  1  0.91059940  0.80117280  0.63826800  1
  Li  Li624  1  0.91059940  0.80117280  0.83826800  1
  Li  Li625  1  0.00117280  0.11059940  0.16173200  1
  Li  Li626  1  0.00117280  0.11059940  0.36173200  1
  Li  Li627  1  0.00117280  0.11059940  0.56173200  1
  Li  Li628  1  0.00117280  0.11059940  0.76173200  1
  Li  Li629  1  0.00117280  0.11059940  0.96173200  1
  Li  Li630  1  0.00117280  0.31059940  0.16173200  1
  Li  Li631  1  0.00117280  0.31059940  0.36173200  1
  Li  Li632  1  0.00117280  0.31059940  0.56173200  1
  Li  Li633  1  0.00117280  0.31059940  0.76173200  1
  Li  Li634  1  0.00117280  0.31059940  0.96173200  1
  Li  Li635  1  0.00117280  0.51059940  0.16173200  1
  Li  Li636  1  0.00117280  0.51059940  0.36173200  1
  Li  Li637  1  0.00117280  0.51059940  0.56173200  1
  Li  Li638  1  0.00117280  0.51059940  0.76173200  1
  Li  Li639  1  0.00117280  0.51059940  0.96173200  1
  Li  Li640  1  0.00117280  0.71059940  0.16173200  1
  Li  Li641  1  0.00117280  0.71059940  0.36173200  1
  Li  Li642  1  0.00117280  0.71059940  0.56173200  1
  Li  Li643  1  0.00117280  0.71059940  0.76173200  1
  Li  Li644  1  0.00117280  0.71059940  0.96173200  1
  Li  Li645  1  0.00117280  0.91059940  0.16173200  1
  Li  Li646  1  0.00117280  0.91059940  0.36173200  1
  Li  Li647  1  0.00117280  0.91059940  0.56173200  1
  Li  Li648  1  0.00117280  0.91059940  0.76173200  1
  Li  Li649  1  0.00117280  0.91059940  0.96173200  1
  Li  Li650  1  0.20117280  0.11059940  0.16173200  1
  Li  Li651  1  0.20117280  0.11059940  0.36173200  1
  Li  Li652  1  0.20117280  0.11059940  0.56173200  1
  Li  Li653  1  0.20117280  0.11059940  0.76173200  1
  Li  Li654  1  0.20117280  0.11059940  0.96173200  1
  Li  Li655  1  0.20117280  0.31059940  0.16173200  1
  Li  Li656  1  0.20117280  0.31059940  0.36173200  1
  Li  Li657  1  0.20117280  0.31059940  0.56173200  1
  Li  Li658  1  0.20117280  0.31059940  0.76173200  1
  Li  Li659  1  0.20117280  0.31059940  0.96173200  1
  Li  Li660  1  0.20117280  0.51059940  0.16173200  1
  Li  Li661  1  0.20117280  0.51059940  0.36173200  1
  Li  Li662  1  0.20117280  0.51059940  0.56173200  1
  Li  Li663  1  0.20117280  0.51059940  0.76173200  1
  Li  Li664  1  0.20117280  0.51059940  0.96173200  1
  Li  Li665  1  0.20117280  0.71059940  0.16173200  1
  Li  Li666  1  0.20117280  0.71059940  0.36173200  1
  Li  Li667  1  0.20117280  0.71059940  0.56173200  1
  Li  Li668  1  0.20117280  0.71059940  0.76173200  1
  Li  Li669  1  0.20117280  0.71059940  0.96173200  1
  Li  Li670  1  0.20117280  0.91059940  0.16173200  1
  Li  Li671  1  0.20117280  0.91059940  0.36173200  1
  Li  Li672  1  0.20117280  0.91059940  0.56173200  1
  Li  Li673  1  0.20117280  0.91059940  0.76173200  1
  Li  Li674  1  0.20117280  0.91059940  0.96173200  1
  Li  Li675  1  0.40117280  0.11059940  0.16173200  1
  Li  Li676  1  0.40117280  0.11059940  0.36173200  1
  Li  Li677  1  0.40117280  0.11059940  0.56173200  1
  Li  Li678  1  0.40117280  0.11059940  0.76173200  1
  Li  Li679  1  0.40117280  0.11059940  0.96173200  1
  Li  Li680  1  0.40117280  0.31059940  0.16173200  1
  Li  Li681  1  0.40117280  0.31059940  0.36173200  1
  Li  Li682  1  0.40117280  0.31059940  0.56173200  1
  Li  Li683  1  0.40117280  0.31059940  0.76173200  1
  Li  Li684  1  0.40117280  0.31059940  0.96173200  1
  Li  Li685  1  0.40117280  0.51059940  0.16173200  1
  Li  Li686  1  0.40117280  0.51059940  0.36173200  1
  Li  Li687  1  0.40117280  0.51059940  0.56173200  1
  Li  Li688  1  0.40117280  0.51059940  0.76173200  1
  Li  Li689  1  0.40117280  0.51059940  0.96173200  1
  Li  Li690  1  0.40117280  0.71059940  0.16173200  1
  Li  Li691  1  0.40117280  0.71059940  0.36173200  1
  Li  Li692  1  0.40117280  0.71059940  0.56173200  1
  Li  Li693  1  0.40117280  0.71059940  0.76173200  1
  Li  Li694  1  0.40117280  0.71059940  0.96173200  1
  Li  Li695  1  0.40117280  0.91059940  0.16173200  1
  Li  Li696  1  0.40117280  0.91059940  0.36173200  1
  Li  Li697  1  0.40117280  0.91059940  0.56173200  1
  Li  Li698  1  0.40117280  0.91059940  0.76173200  1
  Li  Li699  1  0.40117280  0.91059940  0.96173200  1
  Li  Li700  1  0.60117280  0.11059940  0.16173200  1
  Li  Li701  1  0.60117280  0.11059940  0.36173200  1
  Li  Li702  1  0.60117280  0.11059940  0.56173200  1
  Li  Li703  1  0.60117280  0.11059940  0.76173200  1
  Li  Li704  1  0.60117280  0.11059940  0.96173200  1
  Li  Li705  1  0.60117280  0.31059940  0.16173200  1
  Li  Li706  1  0.60117280  0.31059940  0.36173200  1
  Li  Li707  1  0.60117280  0.31059940  0.56173200  1
  Li  Li708  1  0.60117280  0.31059940  0.76173200  1
  Li  Li709  1  0.60117280  0.31059940  0.96173200  1
  Li  Li710  1  0.60117280  0.51059940  0.16173200  1
  Li  Li711  1  0.60117280  0.51059940  0.36173200  1
  Li  Li712  1  0.60117280  0.51059940  0.56173200  1
  Li  Li713  1  0.60117280  0.51059940  0.76173200  1
  Li  Li714  1  0.60117280  0.51059940  0.96173200  1
  Li  Li715  1  0.60117280  0.71059940  0.16173200  1
  Li  Li716  1  0.60117280  0.71059940  0.36173200  1
  Li  Li717  1  0.60117280  0.71059940  0.56173200  1
  Li  Li718  1  0.60117280  0.71059940  0.76173200  1
  Li  Li719  1  0.60117280  0.71059940  0.96173200  1
  Li  Li720  1  0.60117280  0.91059940  0.16173200  1
  Li  Li721  1  0.60117280  0.91059940  0.36173200  1
  Li  Li722  1  0.60117280  0.91059940  0.56173200  1
  Li  Li723  1  0.60117280  0.91059940  0.76173200  1
  Li  Li724  1  0.60117280  0.91059940  0.96173200  1
  Li  Li725  1  0.80117280  0.11059940  0.16173200  1
  Li  Li726  1  0.80117280  0.11059940  0.36173200  1
  Li  Li727  1  0.80117280  0.11059940  0.56173200  1
  Li  Li728  1  0.80117280  0.11059940  0.76173200  1
  Li  Li729  1  0.80117280  0.11059940  0.96173200  1
  Li  Li730  1  0.80117280  0.31059940  0.16173200  1
  Li  Li731  1  0.80117280  0.31059940  0.36173200  1
  Li  Li732  1  0.80117280  0.31059940  0.56173200  1
  Li  Li733  1  0.80117280  0.31059940  0.76173200  1
  Li  Li734  1  0.80117280  0.31059940  0.96173200  1
  Li  Li735  1  0.80117280  0.51059940  0.16173200  1
  Li  Li736  1  0.80117280  0.51059940  0.36173200  1
  Li  Li737  1  0.80117280  0.51059940  0.56173200  1
  Li  Li738  1  0.80117280  0.51059940  0.76173200  1
  Li  Li739  1  0.80117280  0.51059940  0.96173200  1
  Li  Li740  1  0.80117280  0.71059940  0.16173200  1
  Li  Li741  1  0.80117280  0.71059940  0.36173200  1
  Li  Li742  1  0.80117280  0.71059940  0.56173200  1
  Li  Li743  1  0.80117280  0.71059940  0.76173200  1
  Li  Li744  1  0.80117280  0.71059940  0.96173200  1
  Li  Li745  1  0.80117280  0.91059940  0.16173200  1
  Li  Li746  1  0.80117280  0.91059940  0.36173200  1
  Li  Li747  1  0.80117280  0.91059940  0.56173200  1
  Li  Li748  1  0.80117280  0.91059940  0.76173200  1
  Li  Li749  1  0.80117280  0.91059940  0.96173200  1
  Ta  Ta750  1  0.15601280  0.02241000  0.00911760  1
  Ta  Ta751  1  0.15601280  0.02241000  0.20911760  1
  Ta  Ta752  1  0.15601280  0.02241000  0.40911760  1
  Ta  Ta753  1  0.15601280  0.02241000  0.60911760  1
  Ta  Ta754  1  0.15601280  0.02241000  0.80911760  1
  Ta  Ta755  1  0.15601280  0.22241000  0.00911760  1
  Ta  Ta756  1  0.15601280  0.22241000  0.20911760  1
  Ta  Ta757  1  0.15601280  0.22241000  0.40911760  1
  Ta  Ta758  1  0.15601280  0.22241000  0.60911760  1
  Ta  Ta759  1  0.15601280  0.22241000  0.80911760  1
  Ta  Ta760  1  0.15601280  0.42241000  0.00911760  1
  Ta  Ta761  1  0.15601280  0.42241000  0.20911760  1
  Ta  Ta762  1  0.15601280  0.42241000  0.40911760  1
  Ta  Ta763  1  0.15601280  0.42241000  0.60911760  1
  Ta  Ta764  1  0.15601280  0.42241000  0.80911760  1
  Ta  Ta765  1  0.15601280  0.62241000  0.00911760  1
  Ta  Ta766  1  0.15601280  0.62241000  0.20911760  1
  Ta  Ta767  1  0.15601280  0.62241000  0.40911760  1
  Ta  Ta768  1  0.15601280  0.62241000  0.60911760  1
  Ta  Ta769  1  0.15601280  0.62241000  0.80911760  1
  Ta  Ta770  1  0.15601280  0.82241000  0.00911760  1
  Ta  Ta771  1  0.15601280  0.82241000  0.20911760  1
  Ta  Ta772  1  0.15601280  0.82241000  0.40911760  1
  Ta  Ta773  1  0.15601280  0.82241000  0.60911760  1
  Ta  Ta774  1  0.15601280  0.82241000  0.80911760  1
  Ta  Ta775  1  0.35601280  0.02241000  0.00911760  1
  Ta  Ta776  1  0.35601280  0.02241000  0.20911760  1
  Ta  Ta777  1  0.35601280  0.02241000  0.40911760  1
  Ta  Ta778  1  0.35601280  0.02241000  0.60911760  1
  Ta  Ta779  1  0.35601280  0.02241000  0.80911760  1
  Ta  Ta780  1  0.35601280  0.22241000  0.00911760  1
  Ta  Ta781  1  0.35601280  0.22241000  0.20911760  1
  Ta  Ta782  1  0.35601280  0.22241000  0.40911760  1
  Ta  Ta783  1  0.35601280  0.22241000  0.60911760  1
  Ta  Ta784  1  0.35601280  0.22241000  0.80911760  1
  Ta  Ta785  1  0.35601280  0.42241000  0.00911760  1
  Ta  Ta786  1  0.35601280  0.42241000  0.20911760  1
  Ta  Ta787  1  0.35601280  0.42241000  0.40911760  1
  Ta  Ta788  1  0.35601280  0.42241000  0.60911760  1
  Ta  Ta789  1  0.35601280  0.42241000  0.80911760  1
  Ta  Ta790  1  0.35601280  0.62241000  0.00911760  1
  Ta  Ta791  1  0.35601280  0.62241000  0.20911760  1
  Ta  Ta792  1  0.35601280  0.62241000  0.40911760  1
  Ta  Ta793  1  0.35601280  0.62241000  0.60911760  1
  Ta  Ta794  1  0.35601280  0.62241000  0.80911760  1
  Ta  Ta795  1  0.35601280  0.82241000  0.00911760  1
  Ta  Ta796  1  0.35601280  0.82241000  0.20911760  1
  Ta  Ta797  1  0.35601280  0.82241000  0.40911760  1
  Ta  Ta798  1  0.35601280  0.82241000  0.60911760  1
  Ta  Ta799  1  0.35601280  0.82241000  0.80911760  1
  Ta  Ta800  1  0.55601280  0.02241000  0.00911760  1
  Ta  Ta801  1  0.55601280  0.02241000  0.20911760  1
  Ta  Ta802  1  0.55601280  0.02241000  0.40911760  1
  Ta  Ta803  1  0.55601280  0.02241000  0.60911760  1
  Ta  Ta804  1  0.55601280  0.02241000  0.80911760  1
  Ta  Ta805  1  0.55601280  0.22241000  0.00911760  1
  Ta  Ta806  1  0.55601280  0.22241000  0.20911760  1
  Ta  Ta807  1  0.55601280  0.22241000  0.40911760  1
  Ta  Ta808  1  0.55601280  0.22241000  0.60911760  1
  Ta  Ta809  1  0.55601280  0.22241000  0.80911760  1
  Ta  Ta810  1  0.55601280  0.42241000  0.00911760  1
  Ta  Ta811  1  0.55601280  0.42241000  0.20911760  1
  Ta  Ta812  1  0.55601280  0.42241000  0.40911760  1
  Ta  Ta813  1  0.55601280  0.42241000  0.60911760  1
  Ta  Ta814  1  0.55601280  0.42241000  0.80911760  1
  Ta  Ta815  1  0.55601280  0.62241000  0.00911760  1
  Ta  Ta816  1  0.55601280  0.62241000  0.20911760  1
  Ta  Ta817  1  0.55601280  0.62241000  0.40911760  1
  Ta  Ta818  1  0.55601280  0.62241000  0.60911760  1
  Ta  Ta819  1  0.55601280  0.62241000  0.80911760  1
  Ta  Ta820  1  0.55601280  0.82241000  0.00911760  1
  Ta  Ta821  1  0.55601280  0.82241000  0.20911760  1
  Ta  Ta822  1  0.55601280  0.82241000  0.40911760  1
  Ta  Ta823  1  0.55601280  0.82241000  0.60911760  1
  Ta  Ta824  1  0.55601280  0.82241000  0.80911760  1
  Ta  Ta825  1  0.75601280  0.02241000  0.00911760  1
  Ta  Ta826  1  0.75601280  0.02241000  0.20911760  1
  Ta  Ta827  1  0.75601280  0.02241000  0.40911760  1
  Ta  Ta828  1  0.75601280  0.02241000  0.60911760  1
  Ta  Ta829  1  0.75601280  0.02241000  0.80911760  1
  Ta  Ta830  1  0.75601280  0.22241000  0.00911760  1
  Ta  Ta831  1  0.75601280  0.22241000  0.20911760  1
  Ta  Ta832  1  0.75601280  0.22241000  0.40911760  1
  Ta  Ta833  1  0.75601280  0.22241000  0.60911760  1
  Ta  Ta834  1  0.75601280  0.22241000  0.80911760  1
  Ta  Ta835  1  0.75601280  0.42241000  0.00911760  1
  Ta  Ta836  1  0.75601280  0.42241000  0.20911760  1
  Ta  Ta837  1  0.75601280  0.42241000  0.40911760  1
  Ta  Ta838  1  0.75601280  0.42241000  0.60911760  1
  Ta  Ta839  1  0.75601280  0.42241000  0.80911760  1
  Ta  Ta840  1  0.75601280  0.62241000  0.00911760  1
  Ta  Ta841  1  0.75601280  0.62241000  0.20911760  1
  Ta  Ta842  1  0.75601280  0.62241000  0.40911760  1
  Ta  Ta843  1  0.75601280  0.62241000  0.60911760  1
  Ta  Ta844  1  0.75601280  0.62241000  0.80911760  1
  Ta  Ta845  1  0.75601280  0.82241000  0.00911760  1
  Ta  Ta846  1  0.75601280  0.82241000  0.20911760  1
  Ta  Ta847  1  0.75601280  0.82241000  0.40911760  1
  Ta  Ta848  1  0.75601280  0.82241000  0.60911760  1
  Ta  Ta849  1  0.75601280  0.82241000  0.80911760  1
  Ta  Ta850  1  0.95601280  0.02241000  0.00911760  1
  Ta  Ta851  1  0.95601280  0.02241000  0.20911760  1
  Ta  Ta852  1  0.95601280  0.02241000  0.40911760  1
  Ta  Ta853  1  0.95601280  0.02241000  0.60911760  1
  Ta  Ta854  1  0.95601280  0.02241000  0.80911760  1
  Ta  Ta855  1  0.95601280  0.22241000  0.00911760  1
  Ta  Ta856  1  0.95601280  0.22241000  0.20911760  1
  Ta  Ta857  1  0.95601280  0.22241000  0.40911760  1
  Ta  Ta858  1  0.95601280  0.22241000  0.60911760  1
  Ta  Ta859  1  0.95601280  0.22241000  0.80911760  1
  Ta  Ta860  1  0.95601280  0.42241000  0.00911760  1
  Ta  Ta861  1  0.95601280  0.42241000  0.20911760  1
  Ta  Ta862  1  0.95601280  0.42241000  0.40911760  1
  Ta  Ta863  1  0.95601280  0.42241000  0.60911760  1
  Ta  Ta864  1  0.95601280  0.42241000  0.80911760  1
  Ta  Ta865  1  0.95601280  0.62241000  0.00911760  1
  Ta  Ta866  1  0.95601280  0.62241000  0.20911760  1
  Ta  Ta867  1  0.95601280  0.62241000  0.40911760  1
  Ta  Ta868  1  0.95601280  0.62241000  0.60911760  1
  Ta  Ta869  1  0.95601280  0.62241000  0.80911760  1
  Ta  Ta870  1  0.95601280  0.82241000  0.00911760  1
  Ta  Ta871  1  0.95601280  0.82241000  0.20911760  1
  Ta  Ta872  1  0.95601280  0.82241000  0.40911760  1
  Ta  Ta873  1  0.95601280  0.82241000  0.60911760  1
  Ta  Ta874  1  0.95601280  0.82241000  0.80911760  1
  Ta  Ta875  1  0.13360280  0.17759000  0.12421580  1
  Ta  Ta876  1  0.13360280  0.17759000  0.32421580  1
  Ta  Ta877  1  0.13360280  0.17759000  0.52421580  1
  Ta  Ta878  1  0.13360280  0.17759000  0.72421580  1
  Ta  Ta879  1  0.13360280  0.17759000  0.92421580  1
  Ta  Ta880  1  0.13360280  0.37759000  0.12421580  1
  Ta  Ta881  1  0.13360280  0.37759000  0.32421580  1
  Ta  Ta882  1  0.13360280  0.37759000  0.52421580  1
  Ta  Ta883  1  0.13360280  0.37759000  0.72421580  1
  Ta  Ta884  1  0.13360280  0.37759000  0.92421580  1
  Ta  Ta885  1  0.13360280  0.57759000  0.12421580  1
  Ta  Ta886  1  0.13360280  0.57759000  0.32421580  1
  Ta  Ta887  1  0.13360280  0.57759000  0.52421580  1
  Ta  Ta888  1  0.13360280  0.57759000  0.72421580  1
  Ta  Ta889  1  0.13360280  0.57759000  0.92421580  1
  Ta  Ta890  1  0.13360280  0.77759000  0.12421580  1
  Ta  Ta891  1  0.13360280  0.77759000  0.32421580  1
  Ta  Ta892  1  0.13360280  0.77759000  0.52421580  1
  Ta  Ta893  1  0.13360280  0.77759000  0.72421580  1
  Ta  Ta894  1  0.13360280  0.77759000  0.92421580  1
  Ta  Ta895  1  0.13360280  0.97759000  0.12421580  1
  Ta  Ta896  1  0.13360280  0.97759000  0.32421580  1
  Ta  Ta897  1  0.13360280  0.97759000  0.52421580  1
  Ta  Ta898  1  0.13360280  0.97759000  0.72421580  1
  Ta  Ta899  1  0.13360280  0.97759000  0.92421580  1
  Ta  Ta900  1  0.33360280  0.17759000  0.12421580  1
  Ta  Ta901  1  0.33360280  0.17759000  0.32421580  1
  Ta  Ta902  1  0.33360280  0.17759000  0.52421580  1
  Ta  Ta903  1  0.33360280  0.17759000  0.72421580  1
  Ta  Ta904  1  0.33360280  0.17759000  0.92421580  1
  Ta  Ta905  1  0.33360280  0.37759000  0.12421580  1
  Ta  Ta906  1  0.33360280  0.37759000  0.32421580  1
  Ta  Ta907  1  0.33360280  0.37759000  0.52421580  1
  Ta  Ta908  1  0.33360280  0.37759000  0.72421580  1
  Ta  Ta909  1  0.33360280  0.37759000  0.92421580  1
  Ta  Ta910  1  0.33360280  0.57759000  0.12421580  1
  Ta  Ta911  1  0.33360280  0.57759000  0.32421580  1
  Ta  Ta912  1  0.33360280  0.57759000  0.52421580  1
  Ta  Ta913  1  0.33360280  0.57759000  0.72421580  1
  Ta  Ta914  1  0.33360280  0.57759000  0.92421580  1
  Ta  Ta915  1  0.33360280  0.77759000  0.12421580  1
  Ta  Ta916  1  0.33360280  0.77759000  0.32421580  1
  Ta  Ta917  1  0.33360280  0.77759000  0.52421580  1
  Ta  Ta918  1  0.33360280  0.77759000  0.72421580  1
  Ta  Ta919  1  0.33360280  0.77759000  0.92421580  1
  Ta  Ta920  1  0.33360280  0.97759000  0.12421580  1
  Ta  Ta921  1  0.33360280  0.97759000  0.32421580  1
  Ta  Ta922  1  0.33360280  0.97759000  0.52421580  1
  Ta  Ta923  1  0.33360280  0.97759000  0.72421580  1
  Ta  Ta924  1  0.33360280  0.97759000  0.92421580  1
  Ta  Ta925  1  0.53360280  0.17759000  0.12421580  1
  Ta  Ta926  1  0.53360280  0.17759000  0.32421580  1
  Ta  Ta927  1  0.53360280  0.17759000  0.52421580  1
  Ta  Ta928  1  0.53360280  0.17759000  0.72421580  1
  Ta  Ta929  1  0.53360280  0.17759000  0.92421580  1
  Ta  Ta930  1  0.53360280  0.37759000  0.12421580  1
  Ta  Ta931  1  0.53360280  0.37759000  0.32421580  1
  Ta  Ta932  1  0.53360280  0.37759000  0.52421580  1
  Ta  Ta933  1  0.53360280  0.37759000  0.72421580  1
  Ta  Ta934  1  0.53360280  0.37759000  0.92421580  1
  Ta  Ta935  1  0.53360280  0.57759000  0.12421580  1
  Ta  Ta936  1  0.53360280  0.57759000  0.32421580  1
  Ta  Ta937  1  0.53360280  0.57759000  0.52421580  1
  Ta  Ta938  1  0.53360280  0.57759000  0.72421580  1
  Ta  Ta939  1  0.53360280  0.57759000  0.92421580  1
  Ta  Ta940  1  0.53360280  0.77759000  0.12421580  1
  Ta  Ta941  1  0.53360280  0.77759000  0.32421580  1
  Ta  Ta942  1  0.53360280  0.77759000  0.52421580  1
  Ta  Ta943  1  0.53360280  0.77759000  0.72421580  1
  Ta  Ta944  1  0.53360280  0.77759000  0.92421580  1
  Ta  Ta945  1  0.53360280  0.97759000  0.12421580  1
  Ta  Ta946  1  0.53360280  0.97759000  0.32421580  1
  Ta  Ta947  1  0.53360280  0.97759000  0.52421580  1
  Ta  Ta948  1  0.53360280  0.97759000  0.72421580  1
  Ta  Ta949  1  0.53360280  0.97759000  0.92421580  1
  Ta  Ta950  1  0.73360280  0.17759000  0.12421580  1
  Ta  Ta951  1  0.73360280  0.17759000  0.32421580  1
  Ta  Ta952  1  0.73360280  0.17759000  0.52421580  1
  Ta  Ta953  1  0.73360280  0.17759000  0.72421580  1
  Ta  Ta954  1  0.73360280  0.17759000  0.92421580  1
  Ta  Ta955  1  0.73360280  0.37759000  0.12421580  1
  Ta  Ta956  1  0.73360280  0.37759000  0.32421580  1
  Ta  Ta957  1  0.73360280  0.37759000  0.52421580  1
  Ta  Ta958  1  0.73360280  0.37759000  0.72421580  1
  Ta  Ta959  1  0.73360280  0.37759000  0.92421580  1
  Ta  Ta960  1  0.73360280  0.57759000  0.12421580  1
  Ta  Ta961  1  0.73360280  0.57759000  0.32421580  1
  Ta  Ta962  1  0.73360280  0.57759000  0.52421580  1
  Ta  Ta963  1  0.73360280  0.57759000  0.72421580  1
  Ta  Ta964  1  0.73360280  0.57759000  0.92421580  1
  Ta  Ta965  1  0.73360280  0.77759000  0.12421580  1
  Ta  Ta966  1  0.73360280  0.77759000  0.32421580  1
  Ta  Ta967  1  0.73360280  0.77759000  0.52421580  1
  Ta  Ta968  1  0.73360280  0.77759000  0.72421580  1
  Ta  Ta969  1  0.73360280  0.77759000  0.92421580  1
  Ta  Ta970  1  0.73360280  0.97759000  0.12421580  1
  Ta  Ta971  1  0.73360280  0.97759000  0.32421580  1
  Ta  Ta972  1  0.73360280  0.97759000  0.52421580  1
  Ta  Ta973  1  0.73360280  0.97759000  0.72421580  1
  Ta  Ta974  1  0.73360280  0.97759000  0.92421580  1
  Ta  Ta975  1  0.93360280  0.17759000  0.12421580  1
  Ta  Ta976  1  0.93360280  0.17759000  0.32421580  1
  Ta  Ta977  1  0.93360280  0.17759000  0.52421580  1
  Ta  Ta978  1  0.93360280  0.17759000  0.72421580  1
  Ta  Ta979  1  0.93360280  0.17759000  0.92421580  1
  Ta  Ta980  1  0.93360280  0.37759000  0.12421580  1
  Ta  Ta981  1  0.93360280  0.37759000  0.32421580  1
  Ta  Ta982  1  0.93360280  0.37759000  0.52421580  1
  Ta  Ta983  1  0.93360280  0.37759000  0.72421580  1
  Ta  Ta984  1  0.93360280  0.37759000  0.92421580  1
  Ta  Ta985  1  0.93360280  0.57759000  0.12421580  1
  Ta  Ta986  1  0.93360280  0.57759000  0.32421580  1
  Ta  Ta987  1  0.93360280  0.57759000  0.52421580  1
  Ta  Ta988  1  0.93360280  0.57759000  0.72421580  1
  Ta  Ta989  1  0.93360280  0.57759000  0.92421580  1
  Ta  Ta990  1  0.93360280  0.77759000  0.12421580  1
  Ta  Ta991  1  0.93360280  0.77759000  0.32421580  1
  Ta  Ta992  1  0.93360280  0.77759000  0.52421580  1
  Ta  Ta993  1  0.93360280  0.77759000  0.72421580  1
  Ta  Ta994  1  0.93360280  0.77759000  0.92421580  1
  Ta  Ta995  1  0.93360280  0.97759000  0.12421580  1
  Ta  Ta996  1  0.93360280  0.97759000  0.32421580  1
  Ta  Ta997  1  0.93360280  0.97759000  0.52421580  1
  Ta  Ta998  1  0.93360280  0.97759000  0.72421580  1
  Ta  Ta999  1  0.93360280  0.97759000  0.92421580  1
  Ta  Ta1000  1  0.04398720  0.06639720  0.05754920  1
  Ta  Ta1001  1  0.04398720  0.06639720  0.25754920  1
  Ta  Ta1002  1  0.04398720  0.06639720  0.45754920  1
  Ta  Ta1003  1  0.04398720  0.06639720  0.65754920  1
  Ta  Ta1004  1  0.04398720  0.06639720  0.85754920  1
  Ta  Ta1005  1  0.04398720  0.26639720  0.05754920  1
  Ta  Ta1006  1  0.04398720  0.26639720  0.25754920  1
  Ta  Ta1007  1  0.04398720  0.26639720  0.45754920  1
  Ta  Ta1008  1  0.04398720  0.26639720  0.65754920  1
  Ta  Ta1009  1  0.04398720  0.26639720  0.85754920  1
  Ta  Ta1010  1  0.04398720  0.46639720  0.05754920  1
  Ta  Ta1011  1  0.04398720  0.46639720  0.25754920  1
  Ta  Ta1012  1  0.04398720  0.46639720  0.45754920  1
  Ta  Ta1013  1  0.04398720  0.46639720  0.65754920  1
  Ta  Ta1014  1  0.04398720  0.46639720  0.85754920  1
  Ta  Ta1015  1  0.04398720  0.66639720  0.05754920  1
  Ta  Ta1016  1  0.04398720  0.66639720  0.25754920  1
  Ta  Ta1017  1  0.04398720  0.66639720  0.45754920  1
  Ta  Ta1018  1  0.04398720  0.66639720  0.65754920  1
  Ta  Ta1019  1  0.04398720  0.66639720  0.85754920  1
  Ta  Ta1020  1  0.04398720  0.86639720  0.05754920  1
  Ta  Ta1021  1  0.04398720  0.86639720  0.25754920  1
  Ta  Ta1022  1  0.04398720  0.86639720  0.45754920  1
  Ta  Ta1023  1  0.04398720  0.86639720  0.65754920  1
  Ta  Ta1024  1  0.04398720  0.86639720  0.85754920  1
  Ta  Ta1025  1  0.24398720  0.06639720  0.05754920  1
  Ta  Ta1026  1  0.24398720  0.06639720  0.25754920  1
  Ta  Ta1027  1  0.24398720  0.06639720  0.45754920  1
  Ta  Ta1028  1  0.24398720  0.06639720  0.65754920  1
  Ta  Ta1029  1  0.24398720  0.06639720  0.85754920  1
  Ta  Ta1030  1  0.24398720  0.26639720  0.05754920  1
  Ta  Ta1031  1  0.24398720  0.26639720  0.25754920  1
  Ta  Ta1032  1  0.24398720  0.26639720  0.45754920  1
  Ta  Ta1033  1  0.24398720  0.26639720  0.65754920  1
  Ta  Ta1034  1  0.24398720  0.26639720  0.85754920  1
  Ta  Ta1035  1  0.24398720  0.46639720  0.05754920  1
  Ta  Ta1036  1  0.24398720  0.46639720  0.25754920  1
  Ta  Ta1037  1  0.24398720  0.46639720  0.45754920  1
  Ta  Ta1038  1  0.24398720  0.46639720  0.65754920  1
  Ta  Ta1039  1  0.24398720  0.46639720  0.85754920  1
  Ta  Ta1040  1  0.24398720  0.66639720  0.05754920  1
  Ta  Ta1041  1  0.24398720  0.66639720  0.25754920  1
  Ta  Ta1042  1  0.24398720  0.66639720  0.45754920  1
  Ta  Ta1043  1  0.24398720  0.66639720  0.65754920  1
  Ta  Ta1044  1  0.24398720  0.66639720  0.85754920  1
  Ta  Ta1045  1  0.24398720  0.86639720  0.05754920  1
  Ta  Ta1046  1  0.24398720  0.86639720  0.25754920  1
  Ta  Ta1047  1  0.24398720  0.86639720  0.45754920  1
  Ta  Ta1048  1  0.24398720  0.86639720  0.65754920  1
  Ta  Ta1049  1  0.24398720  0.86639720  0.85754920  1
  Ta  Ta1050  1  0.44398720  0.06639720  0.05754920  1
  Ta  Ta1051  1  0.44398720  0.06639720  0.25754920  1
  Ta  Ta1052  1  0.44398720  0.06639720  0.45754920  1
  Ta  Ta1053  1  0.44398720  0.06639720  0.65754920  1
  Ta  Ta1054  1  0.44398720  0.06639720  0.85754920  1
  Ta  Ta1055  1  0.44398720  0.26639720  0.05754920  1
  Ta  Ta1056  1  0.44398720  0.26639720  0.25754920  1
  Ta  Ta1057  1  0.44398720  0.26639720  0.45754920  1
  Ta  Ta1058  1  0.44398720  0.26639720  0.65754920  1
  Ta  Ta1059  1  0.44398720  0.26639720  0.85754920  1
  Ta  Ta1060  1  0.44398720  0.46639720  0.05754920  1
  Ta  Ta1061  1  0.44398720  0.46639720  0.25754920  1
  Ta  Ta1062  1  0.44398720  0.46639720  0.45754920  1
  Ta  Ta1063  1  0.44398720  0.46639720  0.65754920  1
  Ta  Ta1064  1  0.44398720  0.46639720  0.85754920  1
  Ta  Ta1065  1  0.44398720  0.66639720  0.05754920  1
  Ta  Ta1066  1  0.44398720  0.66639720  0.25754920  1
  Ta  Ta1067  1  0.44398720  0.66639720  0.45754920  1
  Ta  Ta1068  1  0.44398720  0.66639720  0.65754920  1
  Ta  Ta1069  1  0.44398720  0.66639720  0.85754920  1
  Ta  Ta1070  1  0.44398720  0.86639720  0.05754920  1
  Ta  Ta1071  1  0.44398720  0.86639720  0.25754920  1
  Ta  Ta1072  1  0.44398720  0.86639720  0.45754920  1
  Ta  Ta1073  1  0.44398720  0.86639720  0.65754920  1
  Ta  Ta1074  1  0.44398720  0.86639720  0.85754920  1
  Ta  Ta1075  1  0.64398720  0.06639720  0.05754920  1
  Ta  Ta1076  1  0.64398720  0.06639720  0.25754920  1
  Ta  Ta1077  1  0.64398720  0.06639720  0.45754920  1
  Ta  Ta1078  1  0.64398720  0.06639720  0.65754920  1
  Ta  Ta1079  1  0.64398720  0.06639720  0.85754920  1
  Ta  Ta1080  1  0.64398720  0.26639720  0.05754920  1
  Ta  Ta1081  1  0.64398720  0.26639720  0.25754920  1
  Ta  Ta1082  1  0.64398720  0.26639720  0.45754920  1
  Ta  Ta1083  1  0.64398720  0.26639720  0.65754920  1
  Ta  Ta1084  1  0.64398720  0.26639720  0.85754920  1
  Ta  Ta1085  1  0.64398720  0.46639720  0.05754920  1
  Ta  Ta1086  1  0.64398720  0.46639720  0.25754920  1
  Ta  Ta1087  1  0.64398720  0.46639720  0.45754920  1
  Ta  Ta1088  1  0.64398720  0.46639720  0.65754920  1
  Ta  Ta1089  1  0.64398720  0.46639720  0.85754920  1
  Ta  Ta1090  1  0.64398720  0.66639720  0.05754920  1
  Ta  Ta1091  1  0.64398720  0.66639720  0.25754920  1
  Ta  Ta1092  1  0.64398720  0.66639720  0.45754920  1
  Ta  Ta1093  1  0.64398720  0.66639720  0.65754920  1
  Ta  Ta1094  1  0.64398720  0.66639720  0.85754920  1
  Ta  Ta1095  1  0.64398720  0.86639720  0.05754920  1
  Ta  Ta1096  1  0.64398720  0.86639720  0.25754920  1
  Ta  Ta1097  1  0.64398720  0.86639720  0.45754920  1
  Ta  Ta1098  1  0.64398720  0.86639720  0.65754920  1
  Ta  Ta1099  1  0.64398720  0.86639720  0.85754920  1
  Ta  Ta1100  1  0.84398720  0.06639720  0.05754920  1
  Ta  Ta1101  1  0.84398720  0.06639720  0.25754920  1
  Ta  Ta1102  1  0.84398720  0.06639720  0.45754920  1
  Ta  Ta1103  1  0.84398720  0.06639720  0.65754920  1
  Ta  Ta1104  1  0.84398720  0.06639720  0.85754920  1
  Ta  Ta1105  1  0.84398720  0.26639720  0.05754920  1
  Ta  Ta1106  1  0.84398720  0.26639720  0.25754920  1
  Ta  Ta1107  1  0.84398720  0.26639720  0.45754920  1
  Ta  Ta1108  1  0.84398720  0.26639720  0.65754920  1
  Ta  Ta1109  1  0.84398720  0.26639720  0.85754920  1
  Ta  Ta1110  1  0.84398720  0.46639720  0.05754920  1
  Ta  Ta1111  1  0.84398720  0.46639720  0.25754920  1
  Ta  Ta1112  1  0.84398720  0.46639720  0.45754920  1
  Ta  Ta1113  1  0.84398720  0.46639720  0.65754920  1
  Ta  Ta1114  1  0.84398720  0.46639720  0.85754920  1
  Ta  Ta1115  1  0.84398720  0.66639720  0.05754920  1
  Ta  Ta1116  1  0.84398720  0.66639720  0.25754920  1
  Ta  Ta1117  1  0.84398720  0.66639720  0.45754920  1
  Ta  Ta1118  1  0.84398720  0.66639720  0.65754920  1
  Ta  Ta1119  1  0.84398720  0.66639720  0.85754920  1
  Ta  Ta1120  1  0.84398720  0.86639720  0.05754920  1
  Ta  Ta1121  1  0.84398720  0.86639720  0.25754920  1
  Ta  Ta1122  1  0.84398720  0.86639720  0.45754920  1
  Ta  Ta1123  1  0.84398720  0.86639720  0.65754920  1
  Ta  Ta1124  1  0.84398720  0.86639720  0.85754920  1
  Ta  Ta1125  1  0.17759000  0.13360280  0.07578420  1
  Ta  Ta1126  1  0.17759000  0.13360280  0.27578420  1
  Ta  Ta1127  1  0.17759000  0.13360280  0.47578420  1
  Ta  Ta1128  1  0.17759000  0.13360280  0.67578420  1
  Ta  Ta1129  1  0.17759000  0.13360280  0.87578420  1
  Ta  Ta1130  1  0.17759000  0.33360280  0.07578420  1
  Ta  Ta1131  1  0.17759000  0.33360280  0.27578420  1
  Ta  Ta1132  1  0.17759000  0.33360280  0.47578420  1
  Ta  Ta1133  1  0.17759000  0.33360280  0.67578420  1
  Ta  Ta1134  1  0.17759000  0.33360280  0.87578420  1
  Ta  Ta1135  1  0.17759000  0.53360280  0.07578420  1
  Ta  Ta1136  1  0.17759000  0.53360280  0.27578420  1
  Ta  Ta1137  1  0.17759000  0.53360280  0.47578420  1
  Ta  Ta1138  1  0.17759000  0.53360280  0.67578420  1
  Ta  Ta1139  1  0.17759000  0.53360280  0.87578420  1
  Ta  Ta1140  1  0.17759000  0.73360280  0.07578420  1
  Ta  Ta1141  1  0.17759000  0.73360280  0.27578420  1
  Ta  Ta1142  1  0.17759000  0.73360280  0.47578420  1
  Ta  Ta1143  1  0.17759000  0.73360280  0.67578420  1
  Ta  Ta1144  1  0.17759000  0.73360280  0.87578420  1
  Ta  Ta1145  1  0.17759000  0.93360280  0.07578420  1
  Ta  Ta1146  1  0.17759000  0.93360280  0.27578420  1
  Ta  Ta1147  1  0.17759000  0.93360280  0.47578420  1
  Ta  Ta1148  1  0.17759000  0.93360280  0.67578420  1
  Ta  Ta1149  1  0.17759000  0.93360280  0.87578420  1
  Ta  Ta1150  1  0.37759000  0.13360280  0.07578420  1
  Ta  Ta1151  1  0.37759000  0.13360280  0.27578420  1
  Ta  Ta1152  1  0.37759000  0.13360280  0.47578420  1
  Ta  Ta1153  1  0.37759000  0.13360280  0.67578420  1
  Ta  Ta1154  1  0.37759000  0.13360280  0.87578420  1
  Ta  Ta1155  1  0.37759000  0.33360280  0.07578420  1
  Ta  Ta1156  1  0.37759000  0.33360280  0.27578420  1
  Ta  Ta1157  1  0.37759000  0.33360280  0.47578420  1
  Ta  Ta1158  1  0.37759000  0.33360280  0.67578420  1
  Ta  Ta1159  1  0.37759000  0.33360280  0.87578420  1
  Ta  Ta1160  1  0.37759000  0.53360280  0.07578420  1
  Ta  Ta1161  1  0.37759000  0.53360280  0.27578420  1
  Ta  Ta1162  1  0.37759000  0.53360280  0.47578420  1
  Ta  Ta1163  1  0.37759000  0.53360280  0.67578420  1
  Ta  Ta1164  1  0.37759000  0.53360280  0.87578420  1
  Ta  Ta1165  1  0.37759000  0.73360280  0.07578420  1
  Ta  Ta1166  1  0.37759000  0.73360280  0.27578420  1
  Ta  Ta1167  1  0.37759000  0.73360280  0.47578420  1
  Ta  Ta1168  1  0.37759000  0.73360280  0.67578420  1
  Ta  Ta1169  1  0.37759000  0.73360280  0.87578420  1
  Ta  Ta1170  1  0.37759000  0.93360280  0.07578420  1
  Ta  Ta1171  1  0.37759000  0.93360280  0.27578420  1
  Ta  Ta1172  1  0.37759000  0.93360280  0.47578420  1
  Ta  Ta1173  1  0.37759000  0.93360280  0.67578420  1
  Ta  Ta1174  1  0.37759000  0.93360280  0.87578420  1
  Ta  Ta1175  1  0.57759000  0.13360280  0.07578420  1
  Ta  Ta1176  1  0.57759000  0.13360280  0.27578420  1
  Ta  Ta1177  1  0.57759000  0.13360280  0.47578420  1
  Ta  Ta1178  1  0.57759000  0.13360280  0.67578420  1
  Ta  Ta1179  1  0.57759000  0.13360280  0.87578420  1
  Ta  Ta1180  1  0.57759000  0.33360280  0.07578420  1
  Ta  Ta1181  1  0.57759000  0.33360280  0.27578420  1
  Ta  Ta1182  1  0.57759000  0.33360280  0.47578420  1
  Ta  Ta1183  1  0.57759000  0.33360280  0.67578420  1
  Ta  Ta1184  1  0.57759000  0.33360280  0.87578420  1
  Ta  Ta1185  1  0.57759000  0.53360280  0.07578420  1
  Ta  Ta1186  1  0.57759000  0.53360280  0.27578420  1
  Ta  Ta1187  1  0.57759000  0.53360280  0.47578420  1
  Ta  Ta1188  1  0.57759000  0.53360280  0.67578420  1
  Ta  Ta1189  1  0.57759000  0.53360280  0.87578420  1
  Ta  Ta1190  1  0.57759000  0.73360280  0.07578420  1
  Ta  Ta1191  1  0.57759000  0.73360280  0.27578420  1
  Ta  Ta1192  1  0.57759000  0.73360280  0.47578420  1
  Ta  Ta1193  1  0.57759000  0.73360280  0.67578420  1
  Ta  Ta1194  1  0.57759000  0.73360280  0.87578420  1
  Ta  Ta1195  1  0.57759000  0.93360280  0.07578420  1
  Ta  Ta1196  1  0.57759000  0.93360280  0.27578420  1
  Ta  Ta1197  1  0.57759000  0.93360280  0.47578420  1
  Ta  Ta1198  1  0.57759000  0.93360280  0.67578420  1
  Ta  Ta1199  1  0.57759000  0.93360280  0.87578420  1
  Ta  Ta1200  1  0.77759000  0.13360280  0.07578420  1
  Ta  Ta1201  1  0.77759000  0.13360280  0.27578420  1
  Ta  Ta1202  1  0.77759000  0.13360280  0.47578420  1
  Ta  Ta1203  1  0.77759000  0.13360280  0.67578420  1
  Ta  Ta1204  1  0.77759000  0.13360280  0.87578420  1
  Ta  Ta1205  1  0.77759000  0.33360280  0.07578420  1
  Ta  Ta1206  1  0.77759000  0.33360280  0.27578420  1
  Ta  Ta1207  1  0.77759000  0.33360280  0.47578420  1
  Ta  Ta1208  1  0.77759000  0.33360280  0.67578420  1
  Ta  Ta1209  1  0.77759000  0.33360280  0.87578420  1
  Ta  Ta1210  1  0.77759000  0.53360280  0.07578420  1
  Ta  Ta1211  1  0.77759000  0.53360280  0.27578420  1
  Ta  Ta1212  1  0.77759000  0.53360280  0.47578420  1
  Ta  Ta1213  1  0.77759000  0.53360280  0.67578420  1
  Ta  Ta1214  1  0.77759000  0.53360280  0.87578420  1
  Ta  Ta1215  1  0.77759000  0.73360280  0.07578420  1
  Ta  Ta1216  1  0.77759000  0.73360280  0.27578420  1
  Ta  Ta1217  1  0.77759000  0.73360280  0.47578420  1
  Ta  Ta1218  1  0.77759000  0.73360280  0.67578420  1
  Ta  Ta1219  1  0.77759000  0.73360280  0.87578420  1
  Ta  Ta1220  1  0.77759000  0.93360280  0.07578420  1
  Ta  Ta1221  1  0.77759000  0.93360280  0.27578420  1
  Ta  Ta1222  1  0.77759000  0.93360280  0.47578420  1
  Ta  Ta1223  1  0.77759000  0.93360280  0.67578420  1
  Ta  Ta1224  1  0.77759000  0.93360280  0.87578420  1
  Ta  Ta1225  1  0.97759000  0.13360280  0.07578420  1
  Ta  Ta1226  1  0.97759000  0.13360280  0.27578420  1
  Ta  Ta1227  1  0.97759000  0.13360280  0.47578420  1
  Ta  Ta1228  1  0.97759000  0.13360280  0.67578420  1
  Ta  Ta1229  1  0.97759000  0.13360280  0.87578420  1
  Ta  Ta1230  1  0.97759000  0.33360280  0.07578420  1
  Ta  Ta1231  1  0.97759000  0.33360280  0.27578420  1
  Ta  Ta1232  1  0.97759000  0.33360280  0.47578420  1
  Ta  Ta1233  1  0.97759000  0.33360280  0.67578420  1
  Ta  Ta1234  1  0.97759000  0.33360280  0.87578420  1
  Ta  Ta1235  1  0.97759000  0.53360280  0.07578420  1
  Ta  Ta1236  1  0.97759000  0.53360280  0.27578420  1
  Ta  Ta1237  1  0.97759000  0.53360280  0.47578420  1
  Ta  Ta1238  1  0.97759000  0.53360280  0.67578420  1
  Ta  Ta1239  1  0.97759000  0.53360280  0.87578420  1
  Ta  Ta1240  1  0.97759000  0.73360280  0.07578420  1
  Ta  Ta1241  1  0.97759000  0.73360280  0.27578420  1
  Ta  Ta1242  1  0.97759000  0.73360280  0.47578420  1
  Ta  Ta1243  1  0.97759000  0.73360280  0.67578420  1
  Ta  Ta1244  1  0.97759000  0.73360280  0.87578420  1
  Ta  Ta1245  1  0.97759000  0.93360280  0.07578420  1
  Ta  Ta1246  1  0.97759000  0.93360280  0.27578420  1
  Ta  Ta1247  1  0.97759000  0.93360280  0.47578420  1
  Ta  Ta1248  1  0.97759000  0.93360280  0.67578420  1
  Ta  Ta1249  1  0.97759000  0.93360280  0.87578420  1
  Ta  Ta1250  1  0.06639720  0.04398720  0.14245080  1
  Ta  Ta1251  1  0.06639720  0.04398720  0.34245080  1
  Ta  Ta1252  1  0.06639720  0.04398720  0.54245080  1
  Ta  Ta1253  1  0.06639720  0.04398720  0.74245080  1
  Ta  Ta1254  1  0.06639720  0.04398720  0.94245080  1
  Ta  Ta1255  1  0.06639720  0.24398720  0.14245080  1
  Ta  Ta1256  1  0.06639720  0.24398720  0.34245080  1
  Ta  Ta1257  1  0.06639720  0.24398720  0.54245080  1
  Ta  Ta1258  1  0.06639720  0.24398720  0.74245080  1
  Ta  Ta1259  1  0.06639720  0.24398720  0.94245080  1
  Ta  Ta1260  1  0.06639720  0.44398720  0.14245080  1
  Ta  Ta1261  1  0.06639720  0.44398720  0.34245080  1
  Ta  Ta1262  1  0.06639720  0.44398720  0.54245080  1
  Ta  Ta1263  1  0.06639720  0.44398720  0.74245080  1
  Ta  Ta1264  1  0.06639720  0.44398720  0.94245080  1
  Ta  Ta1265  1  0.06639720  0.64398720  0.14245080  1
  Ta  Ta1266  1  0.06639720  0.64398720  0.34245080  1
  Ta  Ta1267  1  0.06639720  0.64398720  0.54245080  1
  Ta  Ta1268  1  0.06639720  0.64398720  0.74245080  1
  Ta  Ta1269  1  0.06639720  0.64398720  0.94245080  1
  Ta  Ta1270  1  0.06639720  0.84398720  0.14245080  1
  Ta  Ta1271  1  0.06639720  0.84398720  0.34245080  1
  Ta  Ta1272  1  0.06639720  0.84398720  0.54245080  1
  Ta  Ta1273  1  0.06639720  0.84398720  0.74245080  1
  Ta  Ta1274  1  0.06639720  0.84398720  0.94245080  1
  Ta  Ta1275  1  0.26639720  0.04398720  0.14245080  1
  Ta  Ta1276  1  0.26639720  0.04398720  0.34245080  1
  Ta  Ta1277  1  0.26639720  0.04398720  0.54245080  1
  Ta  Ta1278  1  0.26639720  0.04398720  0.74245080  1
  Ta  Ta1279  1  0.26639720  0.04398720  0.94245080  1
  Ta  Ta1280  1  0.26639720  0.24398720  0.14245080  1
  Ta  Ta1281  1  0.26639720  0.24398720  0.34245080  1
  Ta  Ta1282  1  0.26639720  0.24398720  0.54245080  1
  Ta  Ta1283  1  0.26639720  0.24398720  0.74245080  1
  Ta  Ta1284  1  0.26639720  0.24398720  0.94245080  1
  Ta  Ta1285  1  0.26639720  0.44398720  0.14245080  1
  Ta  Ta1286  1  0.26639720  0.44398720  0.34245080  1
  Ta  Ta1287  1  0.26639720  0.44398720  0.54245080  1
  Ta  Ta1288  1  0.26639720  0.44398720  0.74245080  1
  Ta  Ta1289  1  0.26639720  0.44398720  0.94245080  1
  Ta  Ta1290  1  0.26639720  0.64398720  0.14245080  1
  Ta  Ta1291  1  0.26639720  0.64398720  0.34245080  1
  Ta  Ta1292  1  0.26639720  0.64398720  0.54245080  1
  Ta  Ta1293  1  0.26639720  0.64398720  0.74245080  1
  Ta  Ta1294  1  0.26639720  0.64398720  0.94245080  1
  Ta  Ta1295  1  0.26639720  0.84398720  0.14245080  1
  Ta  Ta1296  1  0.26639720  0.84398720  0.34245080  1
  Ta  Ta1297  1  0.26639720  0.84398720  0.54245080  1
  Ta  Ta1298  1  0.26639720  0.84398720  0.74245080  1
  Ta  Ta1299  1  0.26639720  0.84398720  0.94245080  1
  Ta  Ta1300  1  0.46639720  0.04398720  0.14245080  1
  Ta  Ta1301  1  0.46639720  0.04398720  0.34245080  1
  Ta  Ta1302  1  0.46639720  0.04398720  0.54245080  1
  Ta  Ta1303  1  0.46639720  0.04398720  0.74245080  1
  Ta  Ta1304  1  0.46639720  0.04398720  0.94245080  1
  Ta  Ta1305  1  0.46639720  0.24398720  0.14245080  1
  Ta  Ta1306  1  0.46639720  0.24398720  0.34245080  1
  Ta  Ta1307  1  0.46639720  0.24398720  0.54245080  1
  Ta  Ta1308  1  0.46639720  0.24398720  0.74245080  1
  Ta  Ta1309  1  0.46639720  0.24398720  0.94245080  1
  Ta  Ta1310  1  0.46639720  0.44398720  0.14245080  1
  Ta  Ta1311  1  0.46639720  0.44398720  0.34245080  1
  Ta  Ta1312  1  0.46639720  0.44398720  0.54245080  1
  Ta  Ta1313  1  0.46639720  0.44398720  0.74245080  1
  Ta  Ta1314  1  0.46639720  0.44398720  0.94245080  1
  Ta  Ta1315  1  0.46639720  0.64398720  0.14245080  1
  Ta  Ta1316  1  0.46639720  0.64398720  0.34245080  1
  Ta  Ta1317  1  0.46639720  0.64398720  0.54245080  1
  Ta  Ta1318  1  0.46639720  0.64398720  0.74245080  1
  Ta  Ta1319  1  0.46639720  0.64398720  0.94245080  1
  Ta  Ta1320  1  0.46639720  0.84398720  0.14245080  1
  Ta  Ta1321  1  0.46639720  0.84398720  0.34245080  1
  Ta  Ta1322  1  0.46639720  0.84398720  0.54245080  1
  Ta  Ta1323  1  0.46639720  0.84398720  0.74245080  1
  Ta  Ta1324  1  0.46639720  0.84398720  0.94245080  1
  Ta  Ta1325  1  0.66639720  0.04398720  0.14245080  1
  Ta  Ta1326  1  0.66639720  0.04398720  0.34245080  1
  Ta  Ta1327  1  0.66639720  0.04398720  0.54245080  1
  Ta  Ta1328  1  0.66639720  0.04398720  0.74245080  1
  Ta  Ta1329  1  0.66639720  0.04398720  0.94245080  1
  Ta  Ta1330  1  0.66639720  0.24398720  0.14245080  1
  Ta  Ta1331  1  0.66639720  0.24398720  0.34245080  1
  Ta  Ta1332  1  0.66639720  0.24398720  0.54245080  1
  Ta  Ta1333  1  0.66639720  0.24398720  0.74245080  1
  Ta  Ta1334  1  0.66639720  0.24398720  0.94245080  1
  Ta  Ta1335  1  0.66639720  0.44398720  0.14245080  1
  Ta  Ta1336  1  0.66639720  0.44398720  0.34245080  1
  Ta  Ta1337  1  0.66639720  0.44398720  0.54245080  1
  Ta  Ta1338  1  0.66639720  0.44398720  0.74245080  1
  Ta  Ta1339  1  0.66639720  0.44398720  0.94245080  1
  Ta  Ta1340  1  0.66639720  0.64398720  0.14245080  1
  Ta  Ta1341  1  0.66639720  0.64398720  0.34245080  1
  Ta  Ta1342  1  0.66639720  0.64398720  0.54245080  1
  Ta  Ta1343  1  0.66639720  0.64398720  0.74245080  1
  Ta  Ta1344  1  0.66639720  0.64398720  0.94245080  1
  Ta  Ta1345  1  0.66639720  0.84398720  0.14245080  1
  Ta  Ta1346  1  0.66639720  0.84398720  0.34245080  1
  Ta  Ta1347  1  0.66639720  0.84398720  0.54245080  1
  Ta  Ta1348  1  0.66639720  0.84398720  0.74245080  1
  Ta  Ta1349  1  0.66639720  0.84398720  0.94245080  1
  Ta  Ta1350  1  0.86639720  0.04398720  0.14245080  1
  Ta  Ta1351  1  0.86639720  0.04398720  0.34245080  1
  Ta  Ta1352  1  0.86639720  0.04398720  0.54245080  1
  Ta  Ta1353  1  0.86639720  0.04398720  0.74245080  1
  Ta  Ta1354  1  0.86639720  0.04398720  0.94245080  1
  Ta  Ta1355  1  0.86639720  0.24398720  0.14245080  1
  Ta  Ta1356  1  0.86639720  0.24398720  0.34245080  1
  Ta  Ta1357  1  0.86639720  0.24398720  0.54245080  1
  Ta  Ta1358  1  0.86639720  0.24398720  0.74245080  1
  Ta  Ta1359  1  0.86639720  0.24398720  0.94245080  1
  Ta  Ta1360  1  0.86639720  0.44398720  0.14245080  1
  Ta  Ta1361  1  0.86639720  0.44398720  0.34245080  1
  Ta  Ta1362  1  0.86639720  0.44398720  0.54245080  1
  Ta  Ta1363  1  0.86639720  0.44398720  0.74245080  1
  Ta  Ta1364  1  0.86639720  0.44398720  0.94245080  1
  Ta  Ta1365  1  0.86639720  0.64398720  0.14245080  1
  Ta  Ta1366  1  0.86639720  0.64398720  0.34245080  1
  Ta  Ta1367  1  0.86639720  0.64398720  0.54245080  1
  Ta  Ta1368  1  0.86639720  0.64398720  0.74245080  1
  Ta  Ta1369  1  0.86639720  0.64398720  0.94245080  1
  Ta  Ta1370  1  0.86639720  0.84398720  0.14245080  1
  Ta  Ta1371  1  0.86639720  0.84398720  0.34245080  1
  Ta  Ta1372  1  0.86639720  0.84398720  0.54245080  1
  Ta  Ta1373  1  0.86639720  0.84398720  0.74245080  1
  Ta  Ta1374  1  0.86639720  0.84398720  0.94245080  1
  Ta  Ta1375  1  0.02241000  0.15601280  0.19088240  1
  Ta  Ta1376  1  0.02241000  0.15601280  0.39088240  1
  Ta  Ta1377  1  0.02241000  0.15601280  0.59088240  1
  Ta  Ta1378  1  0.02241000  0.15601280  0.79088240  1
  Ta  Ta1379  1  0.02241000  0.15601280  0.99088240  1
  Ta  Ta1380  1  0.02241000  0.35601280  0.19088240  1
  Ta  Ta1381  1  0.02241000  0.35601280  0.39088240  1
  Ta  Ta1382  1  0.02241000  0.35601280  0.59088240  1
  Ta  Ta1383  1  0.02241000  0.35601280  0.79088240  1
  Ta  Ta1384  1  0.02241000  0.35601280  0.99088240  1
  Ta  Ta1385  1  0.02241000  0.55601280  0.19088240  1
  Ta  Ta1386  1  0.02241000  0.55601280  0.39088240  1
  Ta  Ta1387  1  0.02241000  0.55601280  0.59088240  1
  Ta  Ta1388  1  0.02241000  0.55601280  0.79088240  1
  Ta  Ta1389  1  0.02241000  0.55601280  0.99088240  1
  Ta  Ta1390  1  0.02241000  0.75601280  0.19088240  1
  Ta  Ta1391  1  0.02241000  0.75601280  0.39088240  1
  Ta  Ta1392  1  0.02241000  0.75601280  0.59088240  1
  Ta  Ta1393  1  0.02241000  0.75601280  0.79088240  1
  Ta  Ta1394  1  0.02241000  0.75601280  0.99088240  1
  Ta  Ta1395  1  0.02241000  0.95601280  0.19088240  1
  Ta  Ta1396  1  0.02241000  0.95601280  0.39088240  1
  Ta  Ta1397  1  0.02241000  0.95601280  0.59088240  1
  Ta  Ta1398  1  0.02241000  0.95601280  0.79088240  1
  Ta  Ta1399  1  0.02241000  0.95601280  0.99088240  1
  Ta  Ta1400  1  0.22241000  0.15601280  0.19088240  1
  Ta  Ta1401  1  0.22241000  0.15601280  0.39088240  1
  Ta  Ta1402  1  0.22241000  0.15601280  0.59088240  1
  Ta  Ta1403  1  0.22241000  0.15601280  0.79088240  1
  Ta  Ta1404  1  0.22241000  0.15601280  0.99088240  1
  Ta  Ta1405  1  0.22241000  0.35601280  0.19088240  1
  Ta  Ta1406  1  0.22241000  0.35601280  0.39088240  1
  Ta  Ta1407  1  0.22241000  0.35601280  0.59088240  1
  Ta  Ta1408  1  0.22241000  0.35601280  0.79088240  1
  Ta  Ta1409  1  0.22241000  0.35601280  0.99088240  1
  Ta  Ta1410  1  0.22241000  0.55601280  0.19088240  1
  Ta  Ta1411  1  0.22241000  0.55601280  0.39088240  1
  Ta  Ta1412  1  0.22241000  0.55601280  0.59088240  1
  Ta  Ta1413  1  0.22241000  0.55601280  0.79088240  1
  Ta  Ta1414  1  0.22241000  0.55601280  0.99088240  1
  Ta  Ta1415  1  0.22241000  0.75601280  0.19088240  1
  Ta  Ta1416  1  0.22241000  0.75601280  0.39088240  1
  Ta  Ta1417  1  0.22241000  0.75601280  0.59088240  1
  Ta  Ta1418  1  0.22241000  0.75601280  0.79088240  1
  Ta  Ta1419  1  0.22241000  0.75601280  0.99088240  1
  Ta  Ta1420  1  0.22241000  0.95601280  0.19088240  1
  Ta  Ta1421  1  0.22241000  0.95601280  0.39088240  1
  Ta  Ta1422  1  0.22241000  0.95601280  0.59088240  1
  Ta  Ta1423  1  0.22241000  0.95601280  0.79088240  1
  Ta  Ta1424  1  0.22241000  0.95601280  0.99088240  1
  Ta  Ta1425  1  0.42241000  0.15601280  0.19088240  1
  Ta  Ta1426  1  0.42241000  0.15601280  0.39088240  1
  Ta  Ta1427  1  0.42241000  0.15601280  0.59088240  1
  Ta  Ta1428  1  0.42241000  0.15601280  0.79088240  1
  Ta  Ta1429  1  0.42241000  0.15601280  0.99088240  1
  Ta  Ta1430  1  0.42241000  0.35601280  0.19088240  1
  Ta  Ta1431  1  0.42241000  0.35601280  0.39088240  1
  Ta  Ta1432  1  0.42241000  0.35601280  0.59088240  1
  Ta  Ta1433  1  0.42241000  0.35601280  0.79088240  1
  Ta  Ta1434  1  0.42241000  0.35601280  0.99088240  1
  Ta  Ta1435  1  0.42241000  0.55601280  0.19088240  1
  Ta  Ta1436  1  0.42241000  0.55601280  0.39088240  1
  Ta  Ta1437  1  0.42241000  0.55601280  0.59088240  1
  Ta  Ta1438  1  0.42241000  0.55601280  0.79088240  1
  Ta  Ta1439  1  0.42241000  0.55601280  0.99088240  1
  Ta  Ta1440  1  0.42241000  0.75601280  0.19088240  1
  Ta  Ta1441  1  0.42241000  0.75601280  0.39088240  1
  Ta  Ta1442  1  0.42241000  0.75601280  0.59088240  1
  Ta  Ta1443  1  0.42241000  0.75601280  0.79088240  1
  Ta  Ta1444  1  0.42241000  0.75601280  0.99088240  1
  Ta  Ta1445  1  0.42241000  0.95601280  0.19088240  1
  Ta  Ta1446  1  0.42241000  0.95601280  0.39088240  1
  Ta  Ta1447  1  0.42241000  0.95601280  0.59088240  1
  Ta  Ta1448  1  0.42241000  0.95601280  0.79088240  1
  Ta  Ta1449  1  0.42241000  0.95601280  0.99088240  1
  Ta  Ta1450  1  0.62241000  0.15601280  0.19088240  1
  Ta  Ta1451  1  0.62241000  0.15601280  0.39088240  1
  Ta  Ta1452  1  0.62241000  0.15601280  0.59088240  1
  Ta  Ta1453  1  0.62241000  0.15601280  0.79088240  1
  Ta  Ta1454  1  0.62241000  0.15601280  0.99088240  1
  Ta  Ta1455  1  0.62241000  0.35601280  0.19088240  1
  Ta  Ta1456  1  0.62241000  0.35601280  0.39088240  1
  Ta  Ta1457  1  0.62241000  0.35601280  0.59088240  1
  Ta  Ta1458  1  0.62241000  0.35601280  0.79088240  1
  Ta  Ta1459  1  0.62241000  0.35601280  0.99088240  1
  Ta  Ta1460  1  0.62241000  0.55601280  0.19088240  1
  Ta  Ta1461  1  0.62241000  0.55601280  0.39088240  1
  Ta  Ta1462  1  0.62241000  0.55601280  0.59088240  1
  Ta  Ta1463  1  0.62241000  0.55601280  0.79088240  1
  Ta  Ta1464  1  0.62241000  0.55601280  0.99088240  1
  Ta  Ta1465  1  0.62241000  0.75601280  0.19088240  1
  Ta  Ta1466  1  0.62241000  0.75601280  0.39088240  1
  Ta  Ta1467  1  0.62241000  0.75601280  0.59088240  1
  Ta  Ta1468  1  0.62241000  0.75601280  0.79088240  1
  Ta  Ta1469  1  0.62241000  0.75601280  0.99088240  1
  Ta  Ta1470  1  0.62241000  0.95601280  0.19088240  1
  Ta  Ta1471  1  0.62241000  0.95601280  0.39088240  1
  Ta  Ta1472  1  0.62241000  0.95601280  0.59088240  1
  Ta  Ta1473  1  0.62241000  0.95601280  0.79088240  1
  Ta  Ta1474  1  0.62241000  0.95601280  0.99088240  1
  Ta  Ta1475  1  0.82241000  0.15601280  0.19088240  1
  Ta  Ta1476  1  0.82241000  0.15601280  0.39088240  1
  Ta  Ta1477  1  0.82241000  0.15601280  0.59088240  1
  Ta  Ta1478  1  0.82241000  0.15601280  0.79088240  1
  Ta  Ta1479  1  0.82241000  0.15601280  0.99088240  1
  Ta  Ta1480  1  0.82241000  0.35601280  0.19088240  1
  Ta  Ta1481  1  0.82241000  0.35601280  0.39088240  1
  Ta  Ta1482  1  0.82241000  0.35601280  0.59088240  1
  Ta  Ta1483  1  0.82241000  0.35601280  0.79088240  1
  Ta  Ta1484  1  0.82241000  0.35601280  0.99088240  1
  Ta  Ta1485  1  0.82241000  0.55601280  0.19088240  1
  Ta  Ta1486  1  0.82241000  0.55601280  0.39088240  1
  Ta  Ta1487  1  0.82241000  0.55601280  0.59088240  1
  Ta  Ta1488  1  0.82241000  0.55601280  0.79088240  1
  Ta  Ta1489  1  0.82241000  0.55601280  0.99088240  1
  Ta  Ta1490  1  0.82241000  0.75601280  0.19088240  1
  Ta  Ta1491  1  0.82241000  0.75601280  0.39088240  1
  Ta  Ta1492  1  0.82241000  0.75601280  0.59088240  1
  Ta  Ta1493  1  0.82241000  0.75601280  0.79088240  1
  Ta  Ta1494  1  0.82241000  0.75601280  0.99088240  1
  Ta  Ta1495  1  0.82241000  0.95601280  0.19088240  1
  Ta  Ta1496  1  0.82241000  0.95601280  0.39088240  1
  Ta  Ta1497  1  0.82241000  0.95601280  0.59088240  1
  Ta  Ta1498  1  0.82241000  0.95601280  0.79088240  1
  Ta  Ta1499  1  0.82241000  0.95601280  0.99088240  1
  O  O1500  1  0.01959040  1.00000000  0.06666660  1
  O  O1501  1  0.01959040  1.00000000  0.26666660  1
  O  O1502  1  0.01959040  1.00000000  0.46666660  1
  O  O1503  1  0.01959040  1.00000000  0.66666660  1
  O  O1504  1  0.01959040  1.00000000  0.86666660  1
  O  O1505  1  0.01959040  0.20000000  0.06666660  1
  O  O1506  1  0.01959040  0.20000000  0.26666660  1
  O  O1507  1  0.01959040  0.20000000  0.46666660  1
  O  O1508  1  0.01959040  0.20000000  0.66666660  1
  O  O1509  1  0.01959040  0.20000000  0.86666660  1
  O  O1510  1  0.01959040  0.40000000  0.06666660  1
  O  O1511  1  0.01959040  0.40000000  0.26666660  1
  O  O1512  1  0.01959040  0.40000000  0.46666660  1
  O  O1513  1  0.01959040  0.40000000  0.66666660  1
  O  O1514  1  0.01959040  0.40000000  0.86666660  1
  O  O1515  1  0.01959040  0.60000000  0.06666660  1
  O  O1516  1  0.01959040  0.60000000  0.26666660  1
  O  O1517  1  0.01959040  0.60000000  0.46666660  1
  O  O1518  1  0.01959040  0.60000000  0.66666660  1
  O  O1519  1  0.01959040  0.60000000  0.86666660  1
  O  O1520  1  0.01959040  0.80000000  0.06666660  1
  O  O1521  1  0.01959040  0.80000000  0.26666660  1
  O  O1522  1  0.01959040  0.80000000  0.46666660  1
  O  O1523  1  0.01959040  0.80000000  0.66666660  1
  O  O1524  1  0.01959040  0.80000000  0.86666660  1
  O  O1525  1  0.21959040  1.00000000  0.06666660  1
  O  O1526  1  0.21959040  1.00000000  0.26666660  1
  O  O1527  1  0.21959040  1.00000000  0.46666660  1
  O  O1528  1  0.21959040  1.00000000  0.66666660  1
  O  O1529  1  0.21959040  1.00000000  0.86666660  1
  O  O1530  1  0.21959040  0.20000000  0.06666660  1
  O  O1531  1  0.21959040  0.20000000  0.26666660  1
  O  O1532  1  0.21959040  0.20000000  0.46666660  1
  O  O1533  1  0.21959040  0.20000000  0.66666660  1
  O  O1534  1  0.21959040  0.20000000  0.86666660  1
  O  O1535  1  0.21959040  0.40000000  0.06666660  1
  O  O1536  1  0.21959040  0.40000000  0.26666660  1
  O  O1537  1  0.21959040  0.40000000  0.46666660  1
  O  O1538  1  0.21959040  0.40000000  0.66666660  1
  O  O1539  1  0.21959040  0.40000000  0.86666660  1
  O  O1540  1  0.21959040  0.60000000  0.06666660  1
  O  O1541  1  0.21959040  0.60000000  0.26666660  1
  O  O1542  1  0.21959040  0.60000000  0.46666660  1
  O  O1543  1  0.21959040  0.60000000  0.66666660  1
  O  O1544  1  0.21959040  0.60000000  0.86666660  1
  O  O1545  1  0.21959040  0.80000000  0.06666660  1
  O  O1546  1  0.21959040  0.80000000  0.26666660  1
  O  O1547  1  0.21959040  0.80000000  0.46666660  1
  O  O1548  1  0.21959040  0.80000000  0.66666660  1
  O  O1549  1  0.21959040  0.80000000  0.86666660  1
  O  O1550  1  0.41959040  0.00000000  0.06666660  1
  O  O1551  1  0.41959040  0.00000000  0.26666660  1
  O  O1552  1  0.41959040  0.00000000  0.46666660  1
  O  O1553  1  0.41959040  0.00000000  0.66666660  1
  O  O1554  1  0.41959040  0.00000000  0.86666660  1
  O  O1555  1  0.41959040  0.20000000  0.06666660  1
  O  O1556  1  0.41959040  0.20000000  0.26666660  1
  O  O1557  1  0.41959040  0.20000000  0.46666660  1
  O  O1558  1  0.41959040  0.20000000  0.66666660  1
  O  O1559  1  0.41959040  0.20000000  0.86666660  1
  O  O1560  1  0.41959040  0.40000000  0.06666660  1
  O  O1561  1  0.41959040  0.40000000  0.26666660  1
  O  O1562  1  0.41959040  0.40000000  0.46666660  1
  O  O1563  1  0.41959040  0.40000000  0.66666660  1
  O  O1564  1  0.41959040  0.40000000  0.86666660  1
  O  O1565  1  0.41959040  0.60000000  0.06666660  1
  O  O1566  1  0.41959040  0.60000000  0.26666660  1
  O  O1567  1  0.41959040  0.60000000  0.46666660  1
  O  O1568  1  0.41959040  0.60000000  0.66666660  1
  O  O1569  1  0.41959040  0.60000000  0.86666660  1
  O  O1570  1  0.41959040  0.80000000  0.06666660  1
  O  O1571  1  0.41959040  0.80000000  0.26666660  1
  O  O1572  1  0.41959040  0.80000000  0.46666660  1
  O  O1573  1  0.41959040  0.80000000  0.66666660  1
  O  O1574  1  0.41959040  0.80000000  0.86666660  1
  O  O1575  1  0.61959040  1.00000000  0.06666660  1
  O  O1576  1  0.61959040  1.00000000  0.26666660  1
  O  O1577  1  0.61959040  1.00000000  0.46666660  1
  O  O1578  1  0.61959040  1.00000000  0.66666660  1
  O  O1579  1  0.61959040  1.00000000  0.86666660  1
  O  O1580  1  0.61959040  0.20000000  0.06666660  1
  O  O1581  1  0.61959040  0.20000000  0.26666660  1
  O  O1582  1  0.61959040  0.20000000  0.46666660  1
  O  O1583  1  0.61959040  0.20000000  0.66666660  1
  O  O1584  1  0.61959040  0.20000000  0.86666660  1
  O  O1585  1  0.61959040  0.40000000  0.06666660  1
  O  O1586  1  0.61959040  0.40000000  0.26666660  1
  O  O1587  1  0.61959040  0.40000000  0.46666660  1
  O  O1588  1  0.61959040  0.40000000  0.66666660  1
  O  O1589  1  0.61959040  0.40000000  0.86666660  1
  O  O1590  1  0.61959040  0.60000000  0.06666660  1
  O  O1591  1  0.61959040  0.60000000  0.26666660  1
  O  O1592  1  0.61959040  0.60000000  0.46666660  1
  O  O1593  1  0.61959040  0.60000000  0.66666660  1
  O  O1594  1  0.61959040  0.60000000  0.86666660  1
  O  O1595  1  0.61959040  0.80000000  0.06666660  1
  O  O1596  1  0.61959040  0.80000000  0.26666660  1
  O  O1597  1  0.61959040  0.80000000  0.46666660  1
  O  O1598  1  0.61959040  0.80000000  0.66666660  1
  O  O1599  1  0.61959040  0.80000000  0.86666660  1
  O  O1600  1  0.81959040  0.00000000  0.06666660  1
  O  O1601  1  0.81959040  0.00000000  0.26666660  1
  O  O1602  1  0.81959040  0.00000000  0.46666660  1
  O  O1603  1  0.81959040  0.00000000  0.66666660  1
  O  O1604  1  0.81959040  0.00000000  0.86666660  1
  O  O1605  1  0.81959040  0.20000000  0.06666660  1
  O  O1606  1  0.81959040  0.20000000  0.26666660  1
  O  O1607  1  0.81959040  0.20000000  0.46666660  1
  O  O1608  1  0.81959040  0.20000000  0.66666660  1
  O  O1609  1  0.81959040  0.20000000  0.86666660  1
  O  O1610  1  0.81959040  0.40000000  0.06666660  1
  O  O1611  1  0.81959040  0.40000000  0.26666660  1
  O  O1612  1  0.81959040  0.40000000  0.46666660  1
  O  O1613  1  0.81959040  0.40000000  0.66666660  1
  O  O1614  1  0.81959040  0.40000000  0.86666660  1
  O  O1615  1  0.81959040  0.60000000  0.06666660  1
  O  O1616  1  0.81959040  0.60000000  0.26666660  1
  O  O1617  1  0.81959040  0.60000000  0.46666660  1
  O  O1618  1  0.81959040  0.60000000  0.66666660  1
  O  O1619  1  0.81959040  0.60000000  0.86666660  1
  O  O1620  1  0.81959040  0.80000000  0.06666660  1
  O  O1621  1  0.81959040  0.80000000  0.26666660  1
  O  O1622  1  0.81959040  0.80000000  0.46666660  1
  O  O1623  1  0.81959040  0.80000000  0.66666660  1
  O  O1624  1  0.81959040  0.80000000  0.86666660  1
  O  O1625  1  0.18040960  0.18040960  0.00000000  1
  O  O1626  1  0.18040960  0.18040960  0.20000000  1
  O  O1627  1  0.18040960  0.18040960  0.40000000  1
  O  O1628  1  0.18040960  0.18040960  0.60000000  1
  O  O1629  1  0.18040960  0.18040960  0.80000000  1
  O  O1630  1  0.18040960  0.38040960  0.00000000  1
  O  O1631  1  0.18040960  0.38040960  0.20000000  1
  O  O1632  1  0.18040960  0.38040960  0.40000000  1
  O  O1633  1  0.18040960  0.38040960  0.60000000  1
  O  O1634  1  0.18040960  0.38040960  0.80000000  1
  O  O1635  1  0.18040960  0.58040960  0.00000000  1
  O  O1636  1  0.18040960  0.58040960  0.20000000  1
  O  O1637  1  0.18040960  0.58040960  0.40000000  1
  O  O1638  1  0.18040960  0.58040960  0.60000000  1
  O  O1639  1  0.18040960  0.58040960  0.80000000  1
  O  O1640  1  0.18040960  0.78040960  0.00000000  1
  O  O1641  1  0.18040960  0.78040960  0.20000000  1
  O  O1642  1  0.18040960  0.78040960  0.40000000  1
  O  O1643  1  0.18040960  0.78040960  0.60000000  1
  O  O1644  1  0.18040960  0.78040960  0.80000000  1
  O  O1645  1  0.18040960  0.98040960  0.00000000  1
  O  O1646  1  0.18040960  0.98040960  0.20000000  1
  O  O1647  1  0.18040960  0.98040960  0.40000000  1
  O  O1648  1  0.18040960  0.98040960  0.60000000  1
  O  O1649  1  0.18040960  0.98040960  0.80000000  1
  O  O1650  1  0.38040960  0.18040960  0.00000000  1
  O  O1651  1  0.38040960  0.18040960  0.20000000  1
  O  O1652  1  0.38040960  0.18040960  0.40000000  1
  O  O1653  1  0.38040960  0.18040960  0.60000000  1
  O  O1654  1  0.38040960  0.18040960  0.80000000  1
  O  O1655  1  0.38040960  0.38040960  0.00000000  1
  O  O1656  1  0.38040960  0.38040960  0.20000000  1
  O  O1657  1  0.38040960  0.38040960  0.40000000  1
  O  O1658  1  0.38040960  0.38040960  0.60000000  1
  O  O1659  1  0.38040960  0.38040960  0.80000000  1
  O  O1660  1  0.38040960  0.58040960  0.00000000  1
  O  O1661  1  0.38040960  0.58040960  0.20000000  1
  O  O1662  1  0.38040960  0.58040960  0.40000000  1
  O  O1663  1  0.38040960  0.58040960  0.60000000  1
  O  O1664  1  0.38040960  0.58040960  0.80000000  1
  O  O1665  1  0.38040960  0.78040960  0.00000000  1
  O  O1666  1  0.38040960  0.78040960  0.20000000  1
  O  O1667  1  0.38040960  0.78040960  0.40000000  1
  O  O1668  1  0.38040960  0.78040960  0.60000000  1
  O  O1669  1  0.38040960  0.78040960  0.80000000  1
  O  O1670  1  0.38040960  0.98040960  0.00000000  1
  O  O1671  1  0.38040960  0.98040960  0.20000000  1
  O  O1672  1  0.38040960  0.98040960  0.40000000  1
  O  O1673  1  0.38040960  0.98040960  0.60000000  1
  O  O1674  1  0.38040960  0.98040960  0.80000000  1
  O  O1675  1  0.58040960  0.18040960  0.00000000  1
  O  O1676  1  0.58040960  0.18040960  0.20000000  1
  O  O1677  1  0.58040960  0.18040960  0.40000000  1
  O  O1678  1  0.58040960  0.18040960  0.60000000  1
  O  O1679  1  0.58040960  0.18040960  0.80000000  1
  O  O1680  1  0.58040960  0.38040960  0.00000000  1
  O  O1681  1  0.58040960  0.38040960  0.20000000  1
  O  O1682  1  0.58040960  0.38040960  0.40000000  1
  O  O1683  1  0.58040960  0.38040960  0.60000000  1
  O  O1684  1  0.58040960  0.38040960  0.80000000  1
  O  O1685  1  0.58040960  0.58040960  0.00000000  1
  O  O1686  1  0.58040960  0.58040960  0.20000000  1
  O  O1687  1  0.58040960  0.58040960  0.40000000  1
  O  O1688  1  0.58040960  0.58040960  0.60000000  1
  O  O1689  1  0.58040960  0.58040960  0.80000000  1
  O  O1690  1  0.58040960  0.78040960  0.00000000  1
  O  O1691  1  0.58040960  0.78040960  0.20000000  1
  O  O1692  1  0.58040960  0.78040960  0.40000000  1
  O  O1693  1  0.58040960  0.78040960  0.60000000  1
  O  O1694  1  0.58040960  0.78040960  0.80000000  1
  O  O1695  1  0.58040960  0.98040960  0.00000000  1
  O  O1696  1  0.58040960  0.98040960  0.20000000  1
  O  O1697  1  0.58040960  0.98040960  0.40000000  1
  O  O1698  1  0.58040960  0.98040960  0.60000000  1
  O  O1699  1  0.58040960  0.98040960  0.80000000  1
  O  O1700  1  0.78040960  0.18040960  0.00000000  1
  O  O1701  1  0.78040960  0.18040960  0.20000000  1
  O  O1702  1  0.78040960  0.18040960  0.40000000  1
  O  O1703  1  0.78040960  0.18040960  0.60000000  1
  O  O1704  1  0.78040960  0.18040960  0.80000000  1
  O  O1705  1  0.78040960  0.38040960  0.00000000  1
  O  O1706  1  0.78040960  0.38040960  0.20000000  1
  O  O1707  1  0.78040960  0.38040960  0.40000000  1
  O  O1708  1  0.78040960  0.38040960  0.60000000  1
  O  O1709  1  0.78040960  0.38040960  0.80000000  1
  O  O1710  1  0.78040960  0.58040960  0.00000000  1
  O  O1711  1  0.78040960  0.58040960  0.20000000  1
  O  O1712  1  0.78040960  0.58040960  0.40000000  1
  O  O1713  1  0.78040960  0.58040960  0.60000000  1
  O  O1714  1  0.78040960  0.58040960  0.80000000  1
  O  O1715  1  0.78040960  0.78040960  0.00000000  1
  O  O1716  1  0.78040960  0.78040960  0.20000000  1
  O  O1717  1  0.78040960  0.78040960  0.40000000  1
  O  O1718  1  0.78040960  0.78040960  0.60000000  1
  O  O1719  1  0.78040960  0.78040960  0.80000000  1
  O  O1720  1  0.78040960  0.98040960  0.00000000  1
  O  O1721  1  0.78040960  0.98040960  0.20000000  1
  O  O1722  1  0.78040960  0.98040960  0.40000000  1
  O  O1723  1  0.78040960  0.98040960  0.60000000  1
  O  O1724  1  0.78040960  0.98040960  0.80000000  1
  O  O1725  1  0.98040960  0.18040960  0.00000000  1
  O  O1726  1  0.98040960  0.18040960  0.20000000  1
  O  O1727  1  0.98040960  0.18040960  0.40000000  1
  O  O1728  1  0.98040960  0.18040960  0.60000000  1
  O  O1729  1  0.98040960  0.18040960  0.80000000  1
  O  O1730  1  0.98040960  0.38040960  0.00000000  1
  O  O1731  1  0.98040960  0.38040960  0.20000000  1
  O  O1732  1  0.98040960  0.38040960  0.40000000  1
  O  O1733  1  0.98040960  0.38040960  0.60000000  1
  O  O1734  1  0.98040960  0.38040960  0.80000000  1
  O  O1735  1  0.98040960  0.58040960  0.00000000  1
  O  O1736  1  0.98040960  0.58040960  0.20000000  1
  O  O1737  1  0.98040960  0.58040960  0.40000000  1
  O  O1738  1  0.98040960  0.58040960  0.60000000  1
  O  O1739  1  0.98040960  0.58040960  0.80000000  1
  O  O1740  1  0.98040960  0.78040960  0.00000000  1
  O  O1741  1  0.98040960  0.78040960  0.20000000  1
  O  O1742  1  0.98040960  0.78040960  0.40000000  1
  O  O1743  1  0.98040960  0.78040960  0.60000000  1
  O  O1744  1  0.98040960  0.78040960  0.80000000  1
  O  O1745  1  0.98040960  0.98040960  0.00000000  1
  O  O1746  1  0.98040960  0.98040960  0.20000000  1
  O  O1747  1  0.98040960  0.98040960  0.40000000  1
  O  O1748  1  0.98040960  0.98040960  0.60000000  1
  O  O1749  1  0.98040960  0.98040960  0.80000000  1
  O  O1750  1  0.10125680  0.11614940  0.13502580  1
  O  O1751  1  0.10125680  0.11614940  0.33502580  1
  O  O1752  1  0.10125680  0.11614940  0.53502580  1
  O  O1753  1  0.10125680  0.11614940  0.73502580  1
  O  O1754  1  0.10125680  0.11614940  0.93502580  1
  O  O1755  1  0.10125680  0.31614940  0.13502580  1
  O  O1756  1  0.10125680  0.31614940  0.33502580  1
  O  O1757  1  0.10125680  0.31614940  0.53502580  1
  O  O1758  1  0.10125680  0.31614940  0.73502580  1
  O  O1759  1  0.10125680  0.31614940  0.93502580  1
  O  O1760  1  0.10125680  0.51614940  0.13502580  1
  O  O1761  1  0.10125680  0.51614940  0.33502580  1
  O  O1762  1  0.10125680  0.51614940  0.53502580  1
  O  O1763  1  0.10125680  0.51614940  0.73502580  1
  O  O1764  1  0.10125680  0.51614940  0.93502580  1
  O  O1765  1  0.10125680  0.71614940  0.13502580  1
  O  O1766  1  0.10125680  0.71614940  0.33502580  1
  O  O1767  1  0.10125680  0.71614940  0.53502580  1
  O  O1768  1  0.10125680  0.71614940  0.73502580  1
  O  O1769  1  0.10125680  0.71614940  0.93502580  1
  O  O1770  1  0.10125680  0.91614940  0.13502580  1
  O  O1771  1  0.10125680  0.91614940  0.33502580  1
  O  O1772  1  0.10125680  0.91614940  0.53502580  1
  O  O1773  1  0.10125680  0.91614940  0.73502580  1
  O  O1774  1  0.10125680  0.91614940  0.93502580  1
  O  O1775  1  0.30125680  0.11614940  0.13502580  1
  O  O1776  1  0.30125680  0.11614940  0.33502580  1
  O  O1777  1  0.30125680  0.11614940  0.53502580  1
  O  O1778  1  0.30125680  0.11614940  0.73502580  1
  O  O1779  1  0.30125680  0.11614940  0.93502580  1
  O  O1780  1  0.30125680  0.31614940  0.13502580  1
  O  O1781  1  0.30125680  0.31614940  0.33502580  1
  O  O1782  1  0.30125680  0.31614940  0.53502580  1
  O  O1783  1  0.30125680  0.31614940  0.73502580  1
  O  O1784  1  0.30125680  0.31614940  0.93502580  1
  O  O1785  1  0.30125680  0.51614940  0.13502580  1
  O  O1786  1  0.30125680  0.51614940  0.33502580  1
  O  O1787  1  0.30125680  0.51614940  0.53502580  1
  O  O1788  1  0.30125680  0.51614940  0.73502580  1
  O  O1789  1  0.30125680  0.51614940  0.93502580  1
  O  O1790  1  0.30125680  0.71614940  0.13502580  1
  O  O1791  1  0.30125680  0.71614940  0.33502580  1
  O  O1792  1  0.30125680  0.71614940  0.53502580  1
  O  O1793  1  0.30125680  0.71614940  0.73502580  1
  O  O1794  1  0.30125680  0.71614940  0.93502580  1
  O  O1795  1  0.30125680  0.91614940  0.13502580  1
  O  O1796  1  0.30125680  0.91614940  0.33502580  1
  O  O1797  1  0.30125680  0.91614940  0.53502580  1
  O  O1798  1  0.30125680  0.91614940  0.73502580  1
  O  O1799  1  0.30125680  0.91614940  0.93502580  1
  O  O1800  1  0.50125680  0.11614940  0.13502580  1
  O  O1801  1  0.50125680  0.11614940  0.33502580  1
  O  O1802  1  0.50125680  0.11614940  0.53502580  1
  O  O1803  1  0.50125680  0.11614940  0.73502580  1
  O  O1804  1  0.50125680  0.11614940  0.93502580  1
  O  O1805  1  0.50125680  0.31614940  0.13502580  1
  O  O1806  1  0.50125680  0.31614940  0.33502580  1
  O  O1807  1  0.50125680  0.31614940  0.53502580  1
  O  O1808  1  0.50125680  0.31614940  0.73502580  1
  O  O1809  1  0.50125680  0.31614940  0.93502580  1
  O  O1810  1  0.50125680  0.51614940  0.13502580  1
  O  O1811  1  0.50125680  0.51614940  0.33502580  1
  O  O1812  1  0.50125680  0.51614940  0.53502580  1
  O  O1813  1  0.50125680  0.51614940  0.73502580  1
  O  O1814  1  0.50125680  0.51614940  0.93502580  1
  O  O1815  1  0.50125680  0.71614940  0.13502580  1
  O  O1816  1  0.50125680  0.71614940  0.33502580  1
  O  O1817  1  0.50125680  0.71614940  0.53502580  1
  O  O1818  1  0.50125680  0.71614940  0.73502580  1
  O  O1819  1  0.50125680  0.71614940  0.93502580  1
  O  O1820  1  0.50125680  0.91614940  0.13502580  1
  O  O1821  1  0.50125680  0.91614940  0.33502580  1
  O  O1822  1  0.50125680  0.91614940  0.53502580  1
  O  O1823  1  0.50125680  0.91614940  0.73502580  1
  O  O1824  1  0.50125680  0.91614940  0.93502580  1
  O  O1825  1  0.70125680  0.11614940  0.13502580  1
  O  O1826  1  0.70125680  0.11614940  0.33502580  1
  O  O1827  1  0.70125680  0.11614940  0.53502580  1
  O  O1828  1  0.70125680  0.11614940  0.73502580  1
  O  O1829  1  0.70125680  0.11614940  0.93502580  1
  O  O1830  1  0.70125680  0.31614940  0.13502580  1
  O  O1831  1  0.70125680  0.31614940  0.33502580  1
  O  O1832  1  0.70125680  0.31614940  0.53502580  1
  O  O1833  1  0.70125680  0.31614940  0.73502580  1
  O  O1834  1  0.70125680  0.31614940  0.93502580  1
  O  O1835  1  0.70125680  0.51614940  0.13502580  1
  O  O1836  1  0.70125680  0.51614940  0.33502580  1
  O  O1837  1  0.70125680  0.51614940  0.53502580  1
  O  O1838  1  0.70125680  0.51614940  0.73502580  1
  O  O1839  1  0.70125680  0.51614940  0.93502580  1
  O  O1840  1  0.70125680  0.71614940  0.13502580  1
  O  O1841  1  0.70125680  0.71614940  0.33502580  1
  O  O1842  1  0.70125680  0.71614940  0.53502580  1
  O  O1843  1  0.70125680  0.71614940  0.73502580  1
  O  O1844  1  0.70125680  0.71614940  0.93502580  1
  O  O1845  1  0.70125680  0.91614940  0.13502580  1
  O  O1846  1  0.70125680  0.91614940  0.33502580  1
  O  O1847  1  0.70125680  0.91614940  0.53502580  1
  O  O1848  1  0.70125680  0.91614940  0.73502580  1
  O  O1849  1  0.70125680  0.91614940  0.93502580  1
  O  O1850  1  0.90125680  0.11614940  0.13502580  1
  O  O1851  1  0.90125680  0.11614940  0.33502580  1
  O  O1852  1  0.90125680  0.11614940  0.53502580  1
  O  O1853  1  0.90125680  0.11614940  0.73502580  1
  O  O1854  1  0.90125680  0.11614940  0.93502580  1
  O  O1855  1  0.90125680  0.31614940  0.13502580  1
  O  O1856  1  0.90125680  0.31614940  0.33502580  1
  O  O1857  1  0.90125680  0.31614940  0.53502580  1
  O  O1858  1  0.90125680  0.31614940  0.73502580  1
  O  O1859  1  0.90125680  0.31614940  0.93502580  1
  O  O1860  1  0.90125680  0.51614940  0.13502580  1
  O  O1861  1  0.90125680  0.51614940  0.33502580  1
  O  O1862  1  0.90125680  0.51614940  0.53502580  1
  O  O1863  1  0.90125680  0.51614940  0.73502580  1
  O  O1864  1  0.90125680  0.51614940  0.93502580  1
  O  O1865  1  0.90125680  0.71614940  0.13502580  1
  O  O1866  1  0.90125680  0.71614940  0.33502580  1
  O  O1867  1  0.90125680  0.71614940  0.53502580  1
  O  O1868  1  0.90125680  0.71614940  0.73502580  1
  O  O1869  1  0.90125680  0.71614940  0.93502580  1
  O  O1870  1  0.90125680  0.91614940  0.13502580  1
  O  O1871  1  0.90125680  0.91614940  0.33502580  1
  O  O1872  1  0.90125680  0.91614940  0.53502580  1
  O  O1873  1  0.90125680  0.91614940  0.73502580  1
  O  O1874  1  0.90125680  0.91614940  0.93502580  1
  O  O1875  1  0.11614940  0.10125680  0.06497420  1
  O  O1876  1  0.11614940  0.10125680  0.26497420  1
  O  O1877  1  0.11614940  0.10125680  0.46497420  1
  O  O1878  1  0.11614940  0.10125680  0.66497420  1
  O  O1879  1  0.11614940  0.10125680  0.86497420  1
  O  O1880  1  0.11614940  0.30125680  0.06497420  1
  O  O1881  1  0.11614940  0.30125680  0.26497420  1
  O  O1882  1  0.11614940  0.30125680  0.46497420  1
  O  O1883  1  0.11614940  0.30125680  0.66497420  1
  O  O1884  1  0.11614940  0.30125680  0.86497420  1
  O  O1885  1  0.11614940  0.50125680  0.06497420  1
  O  O1886  1  0.11614940  0.50125680  0.26497420  1
  O  O1887  1  0.11614940  0.50125680  0.46497420  1
  O  O1888  1  0.11614940  0.50125680  0.66497420  1
  O  O1889  1  0.11614940  0.50125680  0.86497420  1
  O  O1890  1  0.11614940  0.70125680  0.06497420  1
  O  O1891  1  0.11614940  0.70125680  0.26497420  1
  O  O1892  1  0.11614940  0.70125680  0.46497420  1
  O  O1893  1  0.11614940  0.70125680  0.66497420  1
  O  O1894  1  0.11614940  0.70125680  0.86497420  1
  O  O1895  1  0.11614940  0.90125680  0.06497420  1
  O  O1896  1  0.11614940  0.90125680  0.26497420  1
  O  O1897  1  0.11614940  0.90125680  0.46497420  1
  O  O1898  1  0.11614940  0.90125680  0.66497420  1
  O  O1899  1  0.11614940  0.90125680  0.86497420  1
  O  O1900  1  0.31614940  0.10125680  0.06497420  1
  O  O1901  1  0.31614940  0.10125680  0.26497420  1
  O  O1902  1  0.31614940  0.10125680  0.46497420  1
  O  O1903  1  0.31614940  0.10125680  0.66497420  1
  O  O1904  1  0.31614940  0.10125680  0.86497420  1
  O  O1905  1  0.31614940  0.30125680  0.06497420  1
  O  O1906  1  0.31614940  0.30125680  0.26497420  1
  O  O1907  1  0.31614940  0.30125680  0.46497420  1
  O  O1908  1  0.31614940  0.30125680  0.66497420  1
  O  O1909  1  0.31614940  0.30125680  0.86497420  1
  O  O1910  1  0.31614940  0.50125680  0.06497420  1
  O  O1911  1  0.31614940  0.50125680  0.26497420  1
  O  O1912  1  0.31614940  0.50125680  0.46497420  1
  O  O1913  1  0.31614940  0.50125680  0.66497420  1
  O  O1914  1  0.31614940  0.50125680  0.86497420  1
  O  O1915  1  0.31614940  0.70125680  0.06497420  1
  O  O1916  1  0.31614940  0.70125680  0.26497420  1
  O  O1917  1  0.31614940  0.70125680  0.46497420  1
  O  O1918  1  0.31614940  0.70125680  0.66497420  1
  O  O1919  1  0.31614940  0.70125680  0.86497420  1
  O  O1920  1  0.31614940  0.90125680  0.06497420  1
  O  O1921  1  0.31614940  0.90125680  0.26497420  1
  O  O1922  1  0.31614940  0.90125680  0.46497420  1
  O  O1923  1  0.31614940  0.90125680  0.66497420  1
  O  O1924  1  0.31614940  0.90125680  0.86497420  1
  O  O1925  1  0.51614940  0.10125680  0.06497420  1
  O  O1926  1  0.51614940  0.10125680  0.26497420  1
  O  O1927  1  0.51614940  0.10125680  0.46497420  1
  O  O1928  1  0.51614940  0.10125680  0.66497420  1
  O  O1929  1  0.51614940  0.10125680  0.86497420  1
  O  O1930  1  0.51614940  0.30125680  0.06497420  1
  O  O1931  1  0.51614940  0.30125680  0.26497420  1
  O  O1932  1  0.51614940  0.30125680  0.46497420  1
  O  O1933  1  0.51614940  0.30125680  0.66497420  1
  O  O1934  1  0.51614940  0.30125680  0.86497420  1
  O  O1935  1  0.51614940  0.50125680  0.06497420  1
  O  O1936  1  0.51614940  0.50125680  0.26497420  1
  O  O1937  1  0.51614940  0.50125680  0.46497420  1
  O  O1938  1  0.51614940  0.50125680  0.66497420  1
  O  O1939  1  0.51614940  0.50125680  0.86497420  1
  O  O1940  1  0.51614940  0.70125680  0.06497420  1
  O  O1941  1  0.51614940  0.70125680  0.26497420  1
  O  O1942  1  0.51614940  0.70125680  0.46497420  1
  O  O1943  1  0.51614940  0.70125680  0.66497420  1
  O  O1944  1  0.51614940  0.70125680  0.86497420  1
  O  O1945  1  0.51614940  0.90125680  0.06497420  1
  O  O1946  1  0.51614940  0.90125680  0.26497420  1
  O  O1947  1  0.51614940  0.90125680  0.46497420  1
  O  O1948  1  0.51614940  0.90125680  0.66497420  1
  O  O1949  1  0.51614940  0.90125680  0.86497420  1
  O  O1950  1  0.71614940  0.10125680  0.06497420  1
  O  O1951  1  0.71614940  0.10125680  0.26497420  1
  O  O1952  1  0.71614940  0.10125680  0.46497420  1
  O  O1953  1  0.71614940  0.10125680  0.66497420  1
  O  O1954  1  0.71614940  0.10125680  0.86497420  1
  O  O1955  1  0.71614940  0.30125680  0.06497420  1
  O  O1956  1  0.71614940  0.30125680  0.26497420  1
  O  O1957  1  0.71614940  0.30125680  0.46497420  1
  O  O1958  1  0.71614940  0.30125680  0.66497420  1
  O  O1959  1  0.71614940  0.30125680  0.86497420  1
  O  O1960  1  0.71614940  0.50125680  0.06497420  1
  O  O1961  1  0.71614940  0.50125680  0.26497420  1
  O  O1962  1  0.71614940  0.50125680  0.46497420  1
  O  O1963  1  0.71614940  0.50125680  0.66497420  1
  O  O1964  1  0.71614940  0.50125680  0.86497420  1
  O  O1965  1  0.71614940  0.70125680  0.06497420  1
  O  O1966  1  0.71614940  0.70125680  0.26497420  1
  O  O1967  1  0.71614940  0.70125680  0.46497420  1
  O  O1968  1  0.71614940  0.70125680  0.66497420  1
  O  O1969  1  0.71614940  0.70125680  0.86497420  1
  O  O1970  1  0.71614940  0.90125680  0.06497420  1
  O  O1971  1  0.71614940  0.90125680  0.26497420  1
  O  O1972  1  0.71614940  0.90125680  0.46497420  1
  O  O1973  1  0.71614940  0.90125680  0.66497420  1
  O  O1974  1  0.71614940  0.90125680  0.86497420  1
  O  O1975  1  0.91614940  0.10125680  0.06497420  1
  O  O1976  1  0.91614940  0.10125680  0.26497420  1
  O  O1977  1  0.91614940  0.10125680  0.46497420  1
  O  O1978  1  0.91614940  0.10125680  0.66497420  1
  O  O1979  1  0.91614940  0.10125680  0.86497420  1
  O  O1980  1  0.91614940  0.30125680  0.06497420  1
  O  O1981  1  0.91614940  0.30125680  0.26497420  1
  O  O1982  1  0.91614940  0.30125680  0.46497420  1
  O  O1983  1  0.91614940  0.30125680  0.66497420  1
  O  O1984  1  0.91614940  0.30125680  0.86497420  1
  O  O1985  1  0.91614940  0.50125680  0.06497420  1
  O  O1986  1  0.91614940  0.50125680  0.26497420  1
  O  O1987  1  0.91614940  0.50125680  0.46497420  1
  O  O1988  1  0.91614940  0.50125680  0.66497420  1
  O  O1989  1  0.91614940  0.50125680  0.86497420  1
  O  O1990  1  0.91614940  0.70125680  0.06497420  1
  O  O1991  1  0.91614940  0.70125680  0.26497420  1
  O  O1992  1  0.91614940  0.70125680  0.46497420  1
  O  O1993  1  0.91614940  0.70125680  0.66497420  1
  O  O1994  1  0.91614940  0.70125680  0.86497420  1
  O  O1995  1  0.91614940  0.90125680  0.06497420  1
  O  O1996  1  0.91614940  0.90125680  0.26497420  1
  O  O1997  1  0.91614940  0.90125680  0.46497420  1
  O  O1998  1  0.91614940  0.90125680  0.66497420  1
  O  O1999  1  0.91614940  0.90125680  0.86497420  1
  O  O2000  1  0.08385060  0.18510740  0.00169260  1
  O  O2001  1  0.08385060  0.18510740  0.20169260  1
  O  O2002  1  0.08385060  0.18510740  0.40169260  1
  O  O2003  1  0.08385060  0.18510740  0.60169260  1
  O  O2004  1  0.08385060  0.18510740  0.80169260  1
  O  O2005  1  0.08385060  0.38510740  0.00169260  1
  O  O2006  1  0.08385060  0.38510740  0.20169260  1
  O  O2007  1  0.08385060  0.38510740  0.40169260  1
  O  O2008  1  0.08385060  0.38510740  0.60169260  1
  O  O2009  1  0.08385060  0.38510740  0.80169260  1
  O  O2010  1  0.08385060  0.58510740  0.00169260  1
  O  O2011  1  0.08385060  0.58510740  0.20169260  1
  O  O2012  1  0.08385060  0.58510740  0.40169260  1
  O  O2013  1  0.08385060  0.58510740  0.60169260  1
  O  O2014  1  0.08385060  0.58510740  0.80169260  1
  O  O2015  1  0.08385060  0.78510740  0.00169260  1
  O  O2016  1  0.08385060  0.78510740  0.20169260  1
  O  O2017  1  0.08385060  0.78510740  0.40169260  1
  O  O2018  1  0.08385060  0.78510740  0.60169260  1
  O  O2019  1  0.08385060  0.78510740  0.80169260  1
  O  O2020  1  0.08385060  0.98510740  0.00169260  1
  O  O2021  1  0.08385060  0.98510740  0.20169260  1
  O  O2022  1  0.08385060  0.98510740  0.40169260  1
  O  O2023  1  0.08385060  0.98510740  0.60169260  1
  O  O2024  1  0.08385060  0.98510740  0.80169260  1
  O  O2025  1  0.28385060  0.18510740  0.00169260  1
  O  O2026  1  0.28385060  0.18510740  0.20169260  1
  O  O2027  1  0.28385060  0.18510740  0.40169260  1
  O  O2028  1  0.28385060  0.18510740  0.60169260  1
  O  O2029  1  0.28385060  0.18510740  0.80169260  1
  O  O2030  1  0.28385060  0.38510740  0.00169260  1
  O  O2031  1  0.28385060  0.38510740  0.20169260  1
  O  O2032  1  0.28385060  0.38510740  0.40169260  1
  O  O2033  1  0.28385060  0.38510740  0.60169260  1
  O  O2034  1  0.28385060  0.38510740  0.80169260  1
  O  O2035  1  0.28385060  0.58510740  0.00169260  1
  O  O2036  1  0.28385060  0.58510740  0.20169260  1
  O  O2037  1  0.28385060  0.58510740  0.40169260  1
  O  O2038  1  0.28385060  0.58510740  0.60169260  1
  O  O2039  1  0.28385060  0.58510740  0.80169260  1
  O  O2040  1  0.28385060  0.78510740  0.00169260  1
  O  O2041  1  0.28385060  0.78510740  0.20169260  1
  O  O2042  1  0.28385060  0.78510740  0.40169260  1
  O  O2043  1  0.28385060  0.78510740  0.60169260  1
  O  O2044  1  0.28385060  0.78510740  0.80169260  1
  O  O2045  1  0.28385060  0.98510740  0.00169260  1
  O  O2046  1  0.28385060  0.98510740  0.20169260  1
  O  O2047  1  0.28385060  0.98510740  0.40169260  1
  O  O2048  1  0.28385060  0.98510740  0.60169260  1
  O  O2049  1  0.28385060  0.98510740  0.80169260  1
  O  O2050  1  0.48385060  0.18510740  0.00169260  1
  O  O2051  1  0.48385060  0.18510740  0.20169260  1
  O  O2052  1  0.48385060  0.18510740  0.40169260  1
  O  O2053  1  0.48385060  0.18510740  0.60169260  1
  O  O2054  1  0.48385060  0.18510740  0.80169260  1
  O  O2055  1  0.48385060  0.38510740  0.00169260  1
  O  O2056  1  0.48385060  0.38510740  0.20169260  1
  O  O2057  1  0.48385060  0.38510740  0.40169260  1
  O  O2058  1  0.48385060  0.38510740  0.60169260  1
  O  O2059  1  0.48385060  0.38510740  0.80169260  1
  O  O2060  1  0.48385060  0.58510740  0.00169260  1
  O  O2061  1  0.48385060  0.58510740  0.20169260  1
  O  O2062  1  0.48385060  0.58510740  0.40169260  1
  O  O2063  1  0.48385060  0.58510740  0.60169260  1
  O  O2064  1  0.48385060  0.58510740  0.80169260  1
  O  O2065  1  0.48385060  0.78510740  0.00169260  1
  O  O2066  1  0.48385060  0.78510740  0.20169260  1
  O  O2067  1  0.48385060  0.78510740  0.40169260  1
  O  O2068  1  0.48385060  0.78510740  0.60169260  1
  O  O2069  1  0.48385060  0.78510740  0.80169260  1
  O  O2070  1  0.48385060  0.98510740  0.00169260  1
  O  O2071  1  0.48385060  0.98510740  0.20169260  1
  O  O2072  1  0.48385060  0.98510740  0.40169260  1
  O  O2073  1  0.48385060  0.98510740  0.60169260  1
  O  O2074  1  0.48385060  0.98510740  0.80169260  1
  O  O2075  1  0.68385060  0.18510740  0.00169260  1
  O  O2076  1  0.68385060  0.18510740  0.20169260  1
  O  O2077  1  0.68385060  0.18510740  0.40169260  1
  O  O2078  1  0.68385060  0.18510740  0.60169260  1
  O  O2079  1  0.68385060  0.18510740  0.80169260  1
  O  O2080  1  0.68385060  0.38510740  0.00169260  1
  O  O2081  1  0.68385060  0.38510740  0.20169260  1
  O  O2082  1  0.68385060  0.38510740  0.40169260  1
  O  O2083  1  0.68385060  0.38510740  0.60169260  1
  O  O2084  1  0.68385060  0.38510740  0.80169260  1
  O  O2085  1  0.68385060  0.58510740  0.00169260  1
  O  O2086  1  0.68385060  0.58510740  0.20169260  1
  O  O2087  1  0.68385060  0.58510740  0.40169260  1
  O  O2088  1  0.68385060  0.58510740  0.60169260  1
  O  O2089  1  0.68385060  0.58510740  0.80169260  1
  O  O2090  1  0.68385060  0.78510740  0.00169260  1
  O  O2091  1  0.68385060  0.78510740  0.20169260  1
  O  O2092  1  0.68385060  0.78510740  0.40169260  1
  O  O2093  1  0.68385060  0.78510740  0.60169260  1
  O  O2094  1  0.68385060  0.78510740  0.80169260  1
  O  O2095  1  0.68385060  0.98510740  0.00169260  1
  O  O2096  1  0.68385060  0.98510740  0.20169260  1
  O  O2097  1  0.68385060  0.98510740  0.40169260  1
  O  O2098  1  0.68385060  0.98510740  0.60169260  1
  O  O2099  1  0.68385060  0.98510740  0.80169260  1
  O  O2100  1  0.88385060  0.18510740  0.00169260  1
  O  O2101  1  0.88385060  0.18510740  0.20169260  1
  O  O2102  1  0.88385060  0.18510740  0.40169260  1
  O  O2103  1  0.88385060  0.18510740  0.60169260  1
  O  O2104  1  0.88385060  0.18510740  0.80169260  1
  O  O2105  1  0.88385060  0.38510740  0.00169260  1
  O  O2106  1  0.88385060  0.38510740  0.20169260  1
  O  O2107  1  0.88385060  0.38510740  0.40169260  1
  O  O2108  1  0.88385060  0.38510740  0.60169260  1
  O  O2109  1  0.88385060  0.38510740  0.80169260  1
  O  O2110  1  0.88385060  0.58510740  0.00169260  1
  O  O2111  1  0.88385060  0.58510740  0.20169260  1
  O  O2112  1  0.88385060  0.58510740  0.40169260  1
  O  O2113  1  0.88385060  0.58510740  0.60169260  1
  O  O2114  1  0.88385060  0.58510740  0.80169260  1
  O  O2115  1  0.88385060  0.78510740  0.00169260  1
  O  O2116  1  0.88385060  0.78510740  0.20169260  1
  O  O2117  1  0.88385060  0.78510740  0.40169260  1
  O  O2118  1  0.88385060  0.78510740  0.60169260  1
  O  O2119  1  0.88385060  0.78510740  0.80169260  1
  O  O2120  1  0.88385060  0.98510740  0.00169260  1
  O  O2121  1  0.88385060  0.98510740  0.20169260  1
  O  O2122  1  0.88385060  0.98510740  0.40169260  1
  O  O2123  1  0.88385060  0.98510740  0.60169260  1
  O  O2124  1  0.88385060  0.98510740  0.80169260  1
  O  O2125  1  1.00000000  0.01959040  0.13333340  1
  O  O2126  1  1.00000000  0.01959040  0.33333340  1
  O  O2127  1  1.00000000  0.01959040  0.53333340  1
  O  O2128  1  1.00000000  0.01959040  0.73333340  1
  O  O2129  1  1.00000000  0.01959040  0.93333340  1
  O  O2130  1  1.00000000  0.21959040  0.13333340  1
  O  O2131  1  1.00000000  0.21959040  0.33333340  1
  O  O2132  1  1.00000000  0.21959040  0.53333340  1
  O  O2133  1  1.00000000  0.21959040  0.73333340  1
  O  O2134  1  1.00000000  0.21959040  0.93333340  1
  O  O2135  1  0.00000000  0.41959040  0.13333340  1
  O  O2136  1  0.00000000  0.41959040  0.33333340  1
  O  O2137  1  0.00000000  0.41959040  0.53333340  1
  O  O2138  1  0.00000000  0.41959040  0.73333340  1
  O  O2139  1  0.00000000  0.41959040  0.93333340  1
  O  O2140  1  1.00000000  0.61959040  0.13333340  1
  O  O2141  1  1.00000000  0.61959040  0.33333340  1
  O  O2142  1  1.00000000  0.61959040  0.53333340  1
  O  O2143  1  1.00000000  0.61959040  0.73333340  1
  O  O2144  1  1.00000000  0.61959040  0.93333340  1
  O  O2145  1  0.00000000  0.81959040  0.13333340  1
  O  O2146  1  0.00000000  0.81959040  0.33333340  1
  O  O2147  1  0.00000000  0.81959040  0.53333340  1
  O  O2148  1  0.00000000  0.81959040  0.73333340  1
  O  O2149  1  0.00000000  0.81959040  0.93333340  1
  O  O2150  1  0.20000000  0.01959040  0.13333340  1
  O  O2151  1  0.20000000  0.01959040  0.33333340  1
  O  O2152  1  0.20000000  0.01959040  0.53333340  1
  O  O2153  1  0.20000000  0.01959040  0.73333340  1
  O  O2154  1  0.20000000  0.01959040  0.93333340  1
  O  O2155  1  0.20000000  0.21959040  0.13333340  1
  O  O2156  1  0.20000000  0.21959040  0.33333340  1
  O  O2157  1  0.20000000  0.21959040  0.53333340  1
  O  O2158  1  0.20000000  0.21959040  0.73333340  1
  O  O2159  1  0.20000000  0.21959040  0.93333340  1
  O  O2160  1  0.20000000  0.41959040  0.13333340  1
  O  O2161  1  0.20000000  0.41959040  0.33333340  1
  O  O2162  1  0.20000000  0.41959040  0.53333340  1
  O  O2163  1  0.20000000  0.41959040  0.73333340  1
  O  O2164  1  0.20000000  0.41959040  0.93333340  1
  O  O2165  1  0.20000000  0.61959040  0.13333340  1
  O  O2166  1  0.20000000  0.61959040  0.33333340  1
  O  O2167  1  0.20000000  0.61959040  0.53333340  1
  O  O2168  1  0.20000000  0.61959040  0.73333340  1
  O  O2169  1  0.20000000  0.61959040  0.93333340  1
  O  O2170  1  0.20000000  0.81959040  0.13333340  1
  O  O2171  1  0.20000000  0.81959040  0.33333340  1
  O  O2172  1  0.20000000  0.81959040  0.53333340  1
  O  O2173  1  0.20000000  0.81959040  0.73333340  1
  O  O2174  1  0.20000000  0.81959040  0.93333340  1
  O  O2175  1  0.40000000  0.01959040  0.13333340  1
  O  O2176  1  0.40000000  0.01959040  0.33333340  1
  O  O2177  1  0.40000000  0.01959040  0.53333340  1
  O  O2178  1  0.40000000  0.01959040  0.73333340  1
  O  O2179  1  0.40000000  0.01959040  0.93333340  1
  O  O2180  1  0.40000000  0.21959040  0.13333340  1
  O  O2181  1  0.40000000  0.21959040  0.33333340  1
  O  O2182  1  0.40000000  0.21959040  0.53333340  1
  O  O2183  1  0.40000000  0.21959040  0.73333340  1
  O  O2184  1  0.40000000  0.21959040  0.93333340  1
  O  O2185  1  0.40000000  0.41959040  0.13333340  1
  O  O2186  1  0.40000000  0.41959040  0.33333340  1
  O  O2187  1  0.40000000  0.41959040  0.53333340  1
  O  O2188  1  0.40000000  0.41959040  0.73333340  1
  O  O2189  1  0.40000000  0.41959040  0.93333340  1
  O  O2190  1  0.40000000  0.61959040  0.13333340  1
  O  O2191  1  0.40000000  0.61959040  0.33333340  1
  O  O2192  1  0.40000000  0.61959040  0.53333340  1
  O  O2193  1  0.40000000  0.61959040  0.73333340  1
  O  O2194  1  0.40000000  0.61959040  0.93333340  1
  O  O2195  1  0.40000000  0.81959040  0.13333340  1
  O  O2196  1  0.40000000  0.81959040  0.33333340  1
  O  O2197  1  0.40000000  0.81959040  0.53333340  1
  O  O2198  1  0.40000000  0.81959040  0.73333340  1
  O  O2199  1  0.40000000  0.81959040  0.93333340  1
  O  O2200  1  0.60000000  0.01959040  0.13333340  1
  O  O2201  1  0.60000000  0.01959040  0.33333340  1
  O  O2202  1  0.60000000  0.01959040  0.53333340  1
  O  O2203  1  0.60000000  0.01959040  0.73333340  1
  O  O2204  1  0.60000000  0.01959040  0.93333340  1
  O  O2205  1  0.60000000  0.21959040  0.13333340  1
  O  O2206  1  0.60000000  0.21959040  0.33333340  1
  O  O2207  1  0.60000000  0.21959040  0.53333340  1
  O  O2208  1  0.60000000  0.21959040  0.73333340  1
  O  O2209  1  0.60000000  0.21959040  0.93333340  1
  O  O2210  1  0.60000000  0.41959040  0.13333340  1
  O  O2211  1  0.60000000  0.41959040  0.33333340  1
  O  O2212  1  0.60000000  0.41959040  0.53333340  1
  O  O2213  1  0.60000000  0.41959040  0.73333340  1
  O  O2214  1  0.60000000  0.41959040  0.93333340  1
  O  O2215  1  0.60000000  0.61959040  0.13333340  1
  O  O2216  1  0.60000000  0.61959040  0.33333340  1
  O  O2217  1  0.60000000  0.61959040  0.53333340  1
  O  O2218  1  0.60000000  0.61959040  0.73333340  1
  O  O2219  1  0.60000000  0.61959040  0.93333340  1
  O  O2220  1  0.60000000  0.81959040  0.13333340  1
  O  O2221  1  0.60000000  0.81959040  0.33333340  1
  O  O2222  1  0.60000000  0.81959040  0.53333340  1
  O  O2223  1  0.60000000  0.81959040  0.73333340  1
  O  O2224  1  0.60000000  0.81959040  0.93333340  1
  O  O2225  1  0.80000000  0.01959040  0.13333340  1
  O  O2226  1  0.80000000  0.01959040  0.33333340  1
  O  O2227  1  0.80000000  0.01959040  0.53333340  1
  O  O2228  1  0.80000000  0.01959040  0.73333340  1
  O  O2229  1  0.80000000  0.01959040  0.93333340  1
  O  O2230  1  0.80000000  0.21959040  0.13333340  1
  O  O2231  1  0.80000000  0.21959040  0.33333340  1
  O  O2232  1  0.80000000  0.21959040  0.53333340  1
  O  O2233  1  0.80000000  0.21959040  0.73333340  1
  O  O2234  1  0.80000000  0.21959040  0.93333340  1
  O  O2235  1  0.80000000  0.41959040  0.13333340  1
  O  O2236  1  0.80000000  0.41959040  0.33333340  1
  O  O2237  1  0.80000000  0.41959040  0.53333340  1
  O  O2238  1  0.80000000  0.41959040  0.73333340  1
  O  O2239  1  0.80000000  0.41959040  0.93333340  1
  O  O2240  1  0.80000000  0.61959040  0.13333340  1
  O  O2241  1  0.80000000  0.61959040  0.33333340  1
  O  O2242  1  0.80000000  0.61959040  0.53333340  1
  O  O2243  1  0.80000000  0.61959040  0.73333340  1
  O  O2244  1  0.80000000  0.61959040  0.93333340  1
  O  O2245  1  0.80000000  0.81959040  0.13333340  1
  O  O2246  1  0.80000000  0.81959040  0.33333340  1
  O  O2247  1  0.80000000  0.81959040  0.53333340  1
  O  O2248  1  0.80000000  0.81959040  0.73333340  1
  O  O2249  1  0.80000000  0.81959040  0.93333340  1
  O  O2250  1  0.18510740  0.08385060  0.19830740  1
  O  O2251  1  0.18510740  0.08385060  0.39830740  1
  O  O2252  1  0.18510740  0.08385060  0.59830740  1
  O  O2253  1  0.18510740  0.08385060  0.79830740  1
  O  O2254  1  0.18510740  0.08385060  0.99830740  1
  O  O2255  1  0.18510740  0.28385060  0.19830740  1
  O  O2256  1  0.18510740  0.28385060  0.39830740  1
  O  O2257  1  0.18510740  0.28385060  0.59830740  1
  O  O2258  1  0.18510740  0.28385060  0.79830740  1
  O  O2259  1  0.18510740  0.28385060  0.99830740  1
  O  O2260  1  0.18510740  0.48385060  0.19830740  1
  O  O2261  1  0.18510740  0.48385060  0.39830740  1
  O  O2262  1  0.18510740  0.48385060  0.59830740  1
  O  O2263  1  0.18510740  0.48385060  0.79830740  1
  O  O2264  1  0.18510740  0.48385060  0.99830740  1
  O  O2265  1  0.18510740  0.68385060  0.19830740  1
  O  O2266  1  0.18510740  0.68385060  0.39830740  1
  O  O2267  1  0.18510740  0.68385060  0.59830740  1
  O  O2268  1  0.18510740  0.68385060  0.79830740  1
  O  O2269  1  0.18510740  0.68385060  0.99830740  1
  O  O2270  1  0.18510740  0.88385060  0.19830740  1
  O  O2271  1  0.18510740  0.88385060  0.39830740  1
  O  O2272  1  0.18510740  0.88385060  0.59830740  1
  O  O2273  1  0.18510740  0.88385060  0.79830740  1
  O  O2274  1  0.18510740  0.88385060  0.99830740  1
  O  O2275  1  0.38510740  0.08385060  0.19830740  1
  O  O2276  1  0.38510740  0.08385060  0.39830740  1
  O  O2277  1  0.38510740  0.08385060  0.59830740  1
  O  O2278  1  0.38510740  0.08385060  0.79830740  1
  O  O2279  1  0.38510740  0.08385060  0.99830740  1
  O  O2280  1  0.38510740  0.28385060  0.19830740  1
  O  O2281  1  0.38510740  0.28385060  0.39830740  1
  O  O2282  1  0.38510740  0.28385060  0.59830740  1
  O  O2283  1  0.38510740  0.28385060  0.79830740  1
  O  O2284  1  0.38510740  0.28385060  0.99830740  1
  O  O2285  1  0.38510740  0.48385060  0.19830740  1
  O  O2286  1  0.38510740  0.48385060  0.39830740  1
  O  O2287  1  0.38510740  0.48385060  0.59830740  1
  O  O2288  1  0.38510740  0.48385060  0.79830740  1
  O  O2289  1  0.38510740  0.48385060  0.99830740  1
  O  O2290  1  0.38510740  0.68385060  0.19830740  1
  O  O2291  1  0.38510740  0.68385060  0.39830740  1
  O  O2292  1  0.38510740  0.68385060  0.59830740  1
  O  O2293  1  0.38510740  0.68385060  0.79830740  1
  O  O2294  1  0.38510740  0.68385060  0.99830740  1
  O  O2295  1  0.38510740  0.88385060  0.19830740  1
  O  O2296  1  0.38510740  0.88385060  0.39830740  1
  O  O2297  1  0.38510740  0.88385060  0.59830740  1
  O  O2298  1  0.38510740  0.88385060  0.79830740  1
  O  O2299  1  0.38510740  0.88385060  0.99830740  1
  O  O2300  1  0.58510740  0.08385060  0.19830740  1
  O  O2301  1  0.58510740  0.08385060  0.39830740  1
  O  O2302  1  0.58510740  0.08385060  0.59830740  1
  O  O2303  1  0.58510740  0.08385060  0.79830740  1
  O  O2304  1  0.58510740  0.08385060  0.99830740  1
  O  O2305  1  0.58510740  0.28385060  0.19830740  1
  O  O2306  1  0.58510740  0.28385060  0.39830740  1
  O  O2307  1  0.58510740  0.28385060  0.59830740  1
  O  O2308  1  0.58510740  0.28385060  0.79830740  1
  O  O2309  1  0.58510740  0.28385060  0.99830740  1
  O  O2310  1  0.58510740  0.48385060  0.19830740  1
  O  O2311  1  0.58510740  0.48385060  0.39830740  1
  O  O2312  1  0.58510740  0.48385060  0.59830740  1
  O  O2313  1  0.58510740  0.48385060  0.79830740  1
  O  O2314  1  0.58510740  0.48385060  0.99830740  1
  O  O2315  1  0.58510740  0.68385060  0.19830740  1
  O  O2316  1  0.58510740  0.68385060  0.39830740  1
  O  O2317  1  0.58510740  0.68385060  0.59830740  1
  O  O2318  1  0.58510740  0.68385060  0.79830740  1
  O  O2319  1  0.58510740  0.68385060  0.99830740  1
  O  O2320  1  0.58510740  0.88385060  0.19830740  1
  O  O2321  1  0.58510740  0.88385060  0.39830740  1
  O  O2322  1  0.58510740  0.88385060  0.59830740  1
  O  O2323  1  0.58510740  0.88385060  0.79830740  1
  O  O2324  1  0.58510740  0.88385060  0.99830740  1
  O  O2325  1  0.78510740  0.08385060  0.19830740  1
  O  O2326  1  0.78510740  0.08385060  0.39830740  1
  O  O2327  1  0.78510740  0.08385060  0.59830740  1
  O  O2328  1  0.78510740  0.08385060  0.79830740  1
  O  O2329  1  0.78510740  0.08385060  0.99830740  1
  O  O2330  1  0.78510740  0.28385060  0.19830740  1
  O  O2331  1  0.78510740  0.28385060  0.39830740  1
  O  O2332  1  0.78510740  0.28385060  0.59830740  1
  O  O2333  1  0.78510740  0.28385060  0.79830740  1
  O  O2334  1  0.78510740  0.28385060  0.99830740  1
  O  O2335  1  0.78510740  0.48385060  0.19830740  1
  O  O2336  1  0.78510740  0.48385060  0.39830740  1
  O  O2337  1  0.78510740  0.48385060  0.59830740  1
  O  O2338  1  0.78510740  0.48385060  0.79830740  1
  O  O2339  1  0.78510740  0.48385060  0.99830740  1
  O  O2340  1  0.78510740  0.68385060  0.19830740  1
  O  O2341  1  0.78510740  0.68385060  0.39830740  1
  O  O2342  1  0.78510740  0.68385060  0.59830740  1
  O  O2343  1  0.78510740  0.68385060  0.79830740  1
  O  O2344  1  0.78510740  0.68385060  0.99830740  1
  O  O2345  1  0.78510740  0.88385060  0.19830740  1
  O  O2346  1  0.78510740  0.88385060  0.39830740  1
  O  O2347  1  0.78510740  0.88385060  0.59830740  1
  O  O2348  1  0.78510740  0.88385060  0.79830740  1
  O  O2349  1  0.78510740  0.88385060  0.99830740  1
  O  O2350  1  0.98510740  0.08385060  0.19830740  1
  O  O2351  1  0.98510740  0.08385060  0.39830740  1
  O  O2352  1  0.98510740  0.08385060  0.59830740  1
  O  O2353  1  0.98510740  0.08385060  0.79830740  1
  O  O2354  1  0.98510740  0.08385060  0.99830740  1
  O  O2355  1  0.98510740  0.28385060  0.19830740  1
  O  O2356  1  0.98510740  0.28385060  0.39830740  1
  O  O2357  1  0.98510740  0.28385060  0.59830740  1
  O  O2358  1  0.98510740  0.28385060  0.79830740  1
  O  O2359  1  0.98510740  0.28385060  0.99830740  1
  O  O2360  1  0.98510740  0.48385060  0.19830740  1
  O  O2361  1  0.98510740  0.48385060  0.39830740  1
  O  O2362  1  0.98510740  0.48385060  0.59830740  1
  O  O2363  1  0.98510740  0.48385060  0.79830740  1
  O  O2364  1  0.98510740  0.48385060  0.99830740  1
  O  O2365  1  0.98510740  0.68385060  0.19830740  1
  O  O2366  1  0.98510740  0.68385060  0.39830740  1
  O  O2367  1  0.98510740  0.68385060  0.59830740  1
  O  O2368  1  0.98510740  0.68385060  0.79830740  1
  O  O2369  1  0.98510740  0.68385060  0.99830740  1
  O  O2370  1  0.98510740  0.88385060  0.19830740  1
  O  O2371  1  0.98510740  0.88385060  0.39830740  1
  O  O2372  1  0.98510740  0.88385060  0.59830740  1
  O  O2373  1  0.98510740  0.88385060  0.79830740  1
  O  O2374  1  0.98510740  0.88385060  0.99830740  1
  O  O2375  1  0.01489260  0.09874320  0.06835920  1
  O  O2376  1  0.01489260  0.09874320  0.26835920  1
  O  O2377  1  0.01489260  0.09874320  0.46835920  1
  O  O2378  1  0.01489260  0.09874320  0.66835920  1
  O  O2379  1  0.01489260  0.09874320  0.86835920  1
  O  O2380  1  0.01489260  0.29874320  0.06835920  1
  O  O2381  1  0.01489260  0.29874320  0.26835920  1
  O  O2382  1  0.01489260  0.29874320  0.46835920  1
  O  O2383  1  0.01489260  0.29874320  0.66835920  1
  O  O2384  1  0.01489260  0.29874320  0.86835920  1
  O  O2385  1  0.01489260  0.49874320  0.06835920  1
  O  O2386  1  0.01489260  0.49874320  0.26835920  1
  O  O2387  1  0.01489260  0.49874320  0.46835920  1
  O  O2388  1  0.01489260  0.49874320  0.66835920  1
  O  O2389  1  0.01489260  0.49874320  0.86835920  1
  O  O2390  1  0.01489260  0.69874320  0.06835920  1
  O  O2391  1  0.01489260  0.69874320  0.26835920  1
  O  O2392  1  0.01489260  0.69874320  0.46835920  1
  O  O2393  1  0.01489260  0.69874320  0.66835920  1
  O  O2394  1  0.01489260  0.69874320  0.86835920  1
  O  O2395  1  0.01489260  0.89874320  0.06835920  1
  O  O2396  1  0.01489260  0.89874320  0.26835920  1
  O  O2397  1  0.01489260  0.89874320  0.46835920  1
  O  O2398  1  0.01489260  0.89874320  0.66835920  1
  O  O2399  1  0.01489260  0.89874320  0.86835920  1
  O  O2400  1  0.21489260  0.09874320  0.06835920  1
  O  O2401  1  0.21489260  0.09874320  0.26835920  1
  O  O2402  1  0.21489260  0.09874320  0.46835920  1
  O  O2403  1  0.21489260  0.09874320  0.66835920  1
  O  O2404  1  0.21489260  0.09874320  0.86835920  1
  O  O2405  1  0.21489260  0.29874320  0.06835920  1
  O  O2406  1  0.21489260  0.29874320  0.26835920  1
  O  O2407  1  0.21489260  0.29874320  0.46835920  1
  O  O2408  1  0.21489260  0.29874320  0.66835920  1
  O  O2409  1  0.21489260  0.29874320  0.86835920  1
  O  O2410  1  0.21489260  0.49874320  0.06835920  1
  O  O2411  1  0.21489260  0.49874320  0.26835920  1
  O  O2412  1  0.21489260  0.49874320  0.46835920  1
  O  O2413  1  0.21489260  0.49874320  0.66835920  1
  O  O2414  1  0.21489260  0.49874320  0.86835920  1
  O  O2415  1  0.21489260  0.69874320  0.06835920  1
  O  O2416  1  0.21489260  0.69874320  0.26835920  1
  O  O2417  1  0.21489260  0.69874320  0.46835920  1
  O  O2418  1  0.21489260  0.69874320  0.66835920  1
  O  O2419  1  0.21489260  0.69874320  0.86835920  1
  O  O2420  1  0.21489260  0.89874320  0.06835920  1
  O  O2421  1  0.21489260  0.89874320  0.26835920  1
  O  O2422  1  0.21489260  0.89874320  0.46835920  1
  O  O2423  1  0.21489260  0.89874320  0.66835920  1
  O  O2424  1  0.21489260  0.89874320  0.86835920  1
  O  O2425  1  0.41489260  0.09874320  0.06835920  1
  O  O2426  1  0.41489260  0.09874320  0.26835920  1
  O  O2427  1  0.41489260  0.09874320  0.46835920  1
  O  O2428  1  0.41489260  0.09874320  0.66835920  1
  O  O2429  1  0.41489260  0.09874320  0.86835920  1
  O  O2430  1  0.41489260  0.29874320  0.06835920  1
  O  O2431  1  0.41489260  0.29874320  0.26835920  1
  O  O2432  1  0.41489260  0.29874320  0.46835920  1
  O  O2433  1  0.41489260  0.29874320  0.66835920  1
  O  O2434  1  0.41489260  0.29874320  0.86835920  1
  O  O2435  1  0.41489260  0.49874320  0.06835920  1
  O  O2436  1  0.41489260  0.49874320  0.26835920  1
  O  O2437  1  0.41489260  0.49874320  0.46835920  1
  O  O2438  1  0.41489260  0.49874320  0.66835920  1
  O  O2439  1  0.41489260  0.49874320  0.86835920  1
  O  O2440  1  0.41489260  0.69874320  0.06835920  1
  O  O2441  1  0.41489260  0.69874320  0.26835920  1
  O  O2442  1  0.41489260  0.69874320  0.46835920  1
  O  O2443  1  0.41489260  0.69874320  0.66835920  1
  O  O2444  1  0.41489260  0.69874320  0.86835920  1
  O  O2445  1  0.41489260  0.89874320  0.06835920  1
  O  O2446  1  0.41489260  0.89874320  0.26835920  1
  O  O2447  1  0.41489260  0.89874320  0.46835920  1
  O  O2448  1  0.41489260  0.89874320  0.66835920  1
  O  O2449  1  0.41489260  0.89874320  0.86835920  1
  O  O2450  1  0.61489260  0.09874320  0.06835920  1
  O  O2451  1  0.61489260  0.09874320  0.26835920  1
  O  O2452  1  0.61489260  0.09874320  0.46835920  1
  O  O2453  1  0.61489260  0.09874320  0.66835920  1
  O  O2454  1  0.61489260  0.09874320  0.86835920  1
  O  O2455  1  0.61489260  0.29874320  0.06835920  1
  O  O2456  1  0.61489260  0.29874320  0.26835920  1
  O  O2457  1  0.61489260  0.29874320  0.46835920  1
  O  O2458  1  0.61489260  0.29874320  0.66835920  1
  O  O2459  1  0.61489260  0.29874320  0.86835920  1
  O  O2460  1  0.61489260  0.49874320  0.06835920  1
  O  O2461  1  0.61489260  0.49874320  0.26835920  1
  O  O2462  1  0.61489260  0.49874320  0.46835920  1
  O  O2463  1  0.61489260  0.49874320  0.66835920  1
  O  O2464  1  0.61489260  0.49874320  0.86835920  1
  O  O2465  1  0.61489260  0.69874320  0.06835920  1
  O  O2466  1  0.61489260  0.69874320  0.26835920  1
  O  O2467  1  0.61489260  0.69874320  0.46835920  1
  O  O2468  1  0.61489260  0.69874320  0.66835920  1
  O  O2469  1  0.61489260  0.69874320  0.86835920  1
  O  O2470  1  0.61489260  0.89874320  0.06835920  1
  O  O2471  1  0.61489260  0.89874320  0.26835920  1
  O  O2472  1  0.61489260  0.89874320  0.46835920  1
  O  O2473  1  0.61489260  0.89874320  0.66835920  1
  O  O2474  1  0.61489260  0.89874320  0.86835920  1
  O  O2475  1  0.81489260  0.09874320  0.06835920  1
  O  O2476  1  0.81489260  0.09874320  0.26835920  1
  O  O2477  1  0.81489260  0.09874320  0.46835920  1
  O  O2478  1  0.81489260  0.09874320  0.66835920  1
  O  O2479  1  0.81489260  0.09874320  0.86835920  1
  O  O2480  1  0.81489260  0.29874320  0.06835920  1
  O  O2481  1  0.81489260  0.29874320  0.26835920  1
  O  O2482  1  0.81489260  0.29874320  0.46835920  1
  O  O2483  1  0.81489260  0.29874320  0.66835920  1
  O  O2484  1  0.81489260  0.29874320  0.86835920  1
  O  O2485  1  0.81489260  0.49874320  0.06835920  1
  O  O2486  1  0.81489260  0.49874320  0.26835920  1
  O  O2487  1  0.81489260  0.49874320  0.46835920  1
  O  O2488  1  0.81489260  0.49874320  0.66835920  1
  O  O2489  1  0.81489260  0.49874320  0.86835920  1
  O  O2490  1  0.81489260  0.69874320  0.06835920  1
  O  O2491  1  0.81489260  0.69874320  0.26835920  1
  O  O2492  1  0.81489260  0.69874320  0.46835920  1
  O  O2493  1  0.81489260  0.69874320  0.66835920  1
  O  O2494  1  0.81489260  0.69874320  0.86835920  1
  O  O2495  1  0.81489260  0.89874320  0.06835920  1
  O  O2496  1  0.81489260  0.89874320  0.26835920  1
  O  O2497  1  0.81489260  0.89874320  0.46835920  1
  O  O2498  1  0.81489260  0.89874320  0.66835920  1
  O  O2499  1  0.81489260  0.89874320  0.86835920  1
  O  O2500  1  0.09874320  0.01489260  0.13164080  1
  O  O2501  1  0.09874320  0.01489260  0.33164080  1
  O  O2502  1  0.09874320  0.01489260  0.53164080  1
  O  O2503  1  0.09874320  0.01489260  0.73164080  1
  O  O2504  1  0.09874320  0.01489260  0.93164080  1
  O  O2505  1  0.09874320  0.21489260  0.13164080  1
  O  O2506  1  0.09874320  0.21489260  0.33164080  1
  O  O2507  1  0.09874320  0.21489260  0.53164080  1
  O  O2508  1  0.09874320  0.21489260  0.73164080  1
  O  O2509  1  0.09874320  0.21489260  0.93164080  1
  O  O2510  1  0.09874320  0.41489260  0.13164080  1
  O  O2511  1  0.09874320  0.41489260  0.33164080  1
  O  O2512  1  0.09874320  0.41489260  0.53164080  1
  O  O2513  1  0.09874320  0.41489260  0.73164080  1
  O  O2514  1  0.09874320  0.41489260  0.93164080  1
  O  O2515  1  0.09874320  0.61489260  0.13164080  1
  O  O2516  1  0.09874320  0.61489260  0.33164080  1
  O  O2517  1  0.09874320  0.61489260  0.53164080  1
  O  O2518  1  0.09874320  0.61489260  0.73164080  1
  O  O2519  1  0.09874320  0.61489260  0.93164080  1
  O  O2520  1  0.09874320  0.81489260  0.13164080  1
  O  O2521  1  0.09874320  0.81489260  0.33164080  1
  O  O2522  1  0.09874320  0.81489260  0.53164080  1
  O  O2523  1  0.09874320  0.81489260  0.73164080  1
  O  O2524  1  0.09874320  0.81489260  0.93164080  1
  O  O2525  1  0.29874320  0.01489260  0.13164080  1
  O  O2526  1  0.29874320  0.01489260  0.33164080  1
  O  O2527  1  0.29874320  0.01489260  0.53164080  1
  O  O2528  1  0.29874320  0.01489260  0.73164080  1
  O  O2529  1  0.29874320  0.01489260  0.93164080  1
  O  O2530  1  0.29874320  0.21489260  0.13164080  1
  O  O2531  1  0.29874320  0.21489260  0.33164080  1
  O  O2532  1  0.29874320  0.21489260  0.53164080  1
  O  O2533  1  0.29874320  0.21489260  0.73164080  1
  O  O2534  1  0.29874320  0.21489260  0.93164080  1
  O  O2535  1  0.29874320  0.41489260  0.13164080  1
  O  O2536  1  0.29874320  0.41489260  0.33164080  1
  O  O2537  1  0.29874320  0.41489260  0.53164080  1
  O  O2538  1  0.29874320  0.41489260  0.73164080  1
  O  O2539  1  0.29874320  0.41489260  0.93164080  1
  O  O2540  1  0.29874320  0.61489260  0.13164080  1
  O  O2541  1  0.29874320  0.61489260  0.33164080  1
  O  O2542  1  0.29874320  0.61489260  0.53164080  1
  O  O2543  1  0.29874320  0.61489260  0.73164080  1
  O  O2544  1  0.29874320  0.61489260  0.93164080  1
  O  O2545  1  0.29874320  0.81489260  0.13164080  1
  O  O2546  1  0.29874320  0.81489260  0.33164080  1
  O  O2547  1  0.29874320  0.81489260  0.53164080  1
  O  O2548  1  0.29874320  0.81489260  0.73164080  1
  O  O2549  1  0.29874320  0.81489260  0.93164080  1
  O  O2550  1  0.49874320  0.01489260  0.13164080  1
  O  O2551  1  0.49874320  0.01489260  0.33164080  1
  O  O2552  1  0.49874320  0.01489260  0.53164080  1
  O  O2553  1  0.49874320  0.01489260  0.73164080  1
  O  O2554  1  0.49874320  0.01489260  0.93164080  1
  O  O2555  1  0.49874320  0.21489260  0.13164080  1
  O  O2556  1  0.49874320  0.21489260  0.33164080  1
  O  O2557  1  0.49874320  0.21489260  0.53164080  1
  O  O2558  1  0.49874320  0.21489260  0.73164080  1
  O  O2559  1  0.49874320  0.21489260  0.93164080  1
  O  O2560  1  0.49874320  0.41489260  0.13164080  1
  O  O2561  1  0.49874320  0.41489260  0.33164080  1
  O  O2562  1  0.49874320  0.41489260  0.53164080  1
  O  O2563  1  0.49874320  0.41489260  0.73164080  1
  O  O2564  1  0.49874320  0.41489260  0.93164080  1
  O  O2565  1  0.49874320  0.61489260  0.13164080  1
  O  O2566  1  0.49874320  0.61489260  0.33164080  1
  O  O2567  1  0.49874320  0.61489260  0.53164080  1
  O  O2568  1  0.49874320  0.61489260  0.73164080  1
  O  O2569  1  0.49874320  0.61489260  0.93164080  1
  O  O2570  1  0.49874320  0.81489260  0.13164080  1
  O  O2571  1  0.49874320  0.81489260  0.33164080  1
  O  O2572  1  0.49874320  0.81489260  0.53164080  1
  O  O2573  1  0.49874320  0.81489260  0.73164080  1
  O  O2574  1  0.49874320  0.81489260  0.93164080  1
  O  O2575  1  0.69874320  0.01489260  0.13164080  1
  O  O2576  1  0.69874320  0.01489260  0.33164080  1
  O  O2577  1  0.69874320  0.01489260  0.53164080  1
  O  O2578  1  0.69874320  0.01489260  0.73164080  1
  O  O2579  1  0.69874320  0.01489260  0.93164080  1
  O  O2580  1  0.69874320  0.21489260  0.13164080  1
  O  O2581  1  0.69874320  0.21489260  0.33164080  1
  O  O2582  1  0.69874320  0.21489260  0.53164080  1
  O  O2583  1  0.69874320  0.21489260  0.73164080  1
  O  O2584  1  0.69874320  0.21489260  0.93164080  1
  O  O2585  1  0.69874320  0.41489260  0.13164080  1
  O  O2586  1  0.69874320  0.41489260  0.33164080  1
  O  O2587  1  0.69874320  0.41489260  0.53164080  1
  O  O2588  1  0.69874320  0.41489260  0.73164080  1
  O  O2589  1  0.69874320  0.41489260  0.93164080  1
  O  O2590  1  0.69874320  0.61489260  0.13164080  1
  O  O2591  1  0.69874320  0.61489260  0.33164080  1
  O  O2592  1  0.69874320  0.61489260  0.53164080  1
  O  O2593  1  0.69874320  0.61489260  0.73164080  1
  O  O2594  1  0.69874320  0.61489260  0.93164080  1
  O  O2595  1  0.69874320  0.81489260  0.13164080  1
  O  O2596  1  0.69874320  0.81489260  0.33164080  1
  O  O2597  1  0.69874320  0.81489260  0.53164080  1
  O  O2598  1  0.69874320  0.81489260  0.73164080  1
  O  O2599  1  0.69874320  0.81489260  0.93164080  1
  O  O2600  1  0.89874320  0.01489260  0.13164080  1
  O  O2601  1  0.89874320  0.01489260  0.33164080  1
  O  O2602  1  0.89874320  0.01489260  0.53164080  1
  O  O2603  1  0.89874320  0.01489260  0.73164080  1
  O  O2604  1  0.89874320  0.01489260  0.93164080  1
  O  O2605  1  0.89874320  0.21489260  0.13164080  1
  O  O2606  1  0.89874320  0.21489260  0.33164080  1
  O  O2607  1  0.89874320  0.21489260  0.53164080  1
  O  O2608  1  0.89874320  0.21489260  0.73164080  1
  O  O2609  1  0.89874320  0.21489260  0.93164080  1
  O  O2610  1  0.89874320  0.41489260  0.13164080  1
  O  O2611  1  0.89874320  0.41489260  0.33164080  1
  O  O2612  1  0.89874320  0.41489260  0.53164080  1
  O  O2613  1  0.89874320  0.41489260  0.73164080  1
  O  O2614  1  0.89874320  0.41489260  0.93164080  1
  O  O2615  1  0.89874320  0.61489260  0.13164080  1
  O  O2616  1  0.89874320  0.61489260  0.33164080  1
  O  O2617  1  0.89874320  0.61489260  0.53164080  1
  O  O2618  1  0.89874320  0.61489260  0.73164080  1
  O  O2619  1  0.89874320  0.61489260  0.93164080  1
  O  O2620  1  0.89874320  0.81489260  0.13164080  1
  O  O2621  1  0.89874320  0.81489260  0.33164080  1
  O  O2622  1  0.89874320  0.81489260  0.53164080  1
  O  O2623  1  0.89874320  0.81489260  0.73164080  1
  O  O2624  1  0.89874320  0.81489260  0.93164080  1
  F  F2625  1  0.07260820  0.14122960  0.11159880  1
  F  F2626  1  0.07260820  0.14122960  0.31159880  1
  F  F2627  1  0.07260820  0.14122960  0.51159880  1
  F  F2628  1  0.07260820  0.14122960  0.71159880  1
  F  F2629  1  0.07260820  0.14122960  0.91159880  1
  F  F2630  1  0.07260820  0.34122960  0.11159880  1
  F  F2631  1  0.07260820  0.34122960  0.31159880  1
  F  F2632  1  0.07260820  0.34122960  0.51159880  1
  F  F2633  1  0.07260820  0.34122960  0.71159880  1
  F  F2634  1  0.07260820  0.34122960  0.91159880  1
  F  F2635  1  0.07260820  0.54122960  0.11159880  1
  F  F2636  1  0.07260820  0.54122960  0.31159880  1
  F  F2637  1  0.07260820  0.54122960  0.51159880  1
  F  F2638  1  0.07260820  0.54122960  0.71159880  1
  F  F2639  1  0.07260820  0.54122960  0.91159880  1
  F  F2640  1  0.07260820  0.74122960  0.11159880  1
  F  F2641  1  0.07260820  0.74122960  0.31159880  1
  F  F2642  1  0.07260820  0.74122960  0.51159880  1
  F  F2643  1  0.07260820  0.74122960  0.71159880  1
  F  F2644  1  0.07260820  0.74122960  0.91159880  1
  F  F2645  1  0.07260820  0.94122960  0.11159880  1
  F  F2646  1  0.07260820  0.94122960  0.31159880  1
  F  F2647  1  0.07260820  0.94122960  0.51159880  1
  F  F2648  1  0.07260820  0.94122960  0.71159880  1
  F  F2649  1  0.07260820  0.94122960  0.91159880  1
  F  F2650  1  0.27260820  0.14122960  0.11159880  1
  F  F2651  1  0.27260820  0.14122960  0.31159880  1
  F  F2652  1  0.27260820  0.14122960  0.51159880  1
  F  F2653  1  0.27260820  0.14122960  0.71159880  1
  F  F2654  1  0.27260820  0.14122960  0.91159880  1
  F  F2655  1  0.27260820  0.34122960  0.11159880  1
  F  F2656  1  0.27260820  0.34122960  0.31159880  1
  F  F2657  1  0.27260820  0.34122960  0.51159880  1
  F  F2658  1  0.27260820  0.34122960  0.71159880  1
  F  F2659  1  0.27260820  0.34122960  0.91159880  1
  F  F2660  1  0.27260820  0.54122960  0.11159880  1
  F  F2661  1  0.27260820  0.54122960  0.31159880  1
  F  F2662  1  0.27260820  0.54122960  0.51159880  1
  F  F2663  1  0.27260820  0.54122960  0.71159880  1
  F  F2664  1  0.27260820  0.54122960  0.91159880  1
  F  F2665  1  0.27260820  0.74122960  0.11159880  1
  F  F2666  1  0.27260820  0.74122960  0.31159880  1
  F  F2667  1  0.27260820  0.74122960  0.51159880  1
  F  F2668  1  0.27260820  0.74122960  0.71159880  1
  F  F2669  1  0.27260820  0.74122960  0.91159880  1
  F  F2670  1  0.27260820  0.94122960  0.11159880  1
  F  F2671  1  0.27260820  0.94122960  0.31159880  1
  F  F2672  1  0.27260820  0.94122960  0.51159880  1
  F  F2673  1  0.27260820  0.94122960  0.71159880  1
  F  F2674  1  0.27260820  0.94122960  0.91159880  1
  F  F2675  1  0.47260820  0.14122960  0.11159880  1
  F  F2676  1  0.47260820  0.14122960  0.31159880  1
  F  F2677  1  0.47260820  0.14122960  0.51159880  1
  F  F2678  1  0.47260820  0.14122960  0.71159880  1
  F  F2679  1  0.47260820  0.14122960  0.91159880  1
  F  F2680  1  0.47260820  0.34122960  0.11159880  1
  F  F2681  1  0.47260820  0.34122960  0.31159880  1
  F  F2682  1  0.47260820  0.34122960  0.51159880  1
  F  F2683  1  0.47260820  0.34122960  0.71159880  1
  F  F2684  1  0.47260820  0.34122960  0.91159880  1
  F  F2685  1  0.47260820  0.54122960  0.11159880  1
  F  F2686  1  0.47260820  0.54122960  0.31159880  1
  F  F2687  1  0.47260820  0.54122960  0.51159880  1
  F  F2688  1  0.47260820  0.54122960  0.71159880  1
  F  F2689  1  0.47260820  0.54122960  0.91159880  1
  F  F2690  1  0.47260820  0.74122960  0.11159880  1
  F  F2691  1  0.47260820  0.74122960  0.31159880  1
  F  F2692  1  0.47260820  0.74122960  0.51159880  1
  F  F2693  1  0.47260820  0.74122960  0.71159880  1
  F  F2694  1  0.47260820  0.74122960  0.91159880  1
  F  F2695  1  0.47260820  0.94122960  0.11159880  1
  F  F2696  1  0.47260820  0.94122960  0.31159880  1
  F  F2697  1  0.47260820  0.94122960  0.51159880  1
  F  F2698  1  0.47260820  0.94122960  0.71159880  1
  F  F2699  1  0.47260820  0.94122960  0.91159880  1
  F  F2700  1  0.67260820  0.14122960  0.11159880  1
  F  F2701  1  0.67260820  0.14122960  0.31159880  1
  F  F2702  1  0.67260820  0.14122960  0.51159880  1
  F  F2703  1  0.67260820  0.14122960  0.71159880  1
  F  F2704  1  0.67260820  0.14122960  0.91159880  1
  F  F2705  1  0.67260820  0.34122960  0.11159880  1
  F  F2706  1  0.67260820  0.34122960  0.31159880  1
  F  F2707  1  0.67260820  0.34122960  0.51159880  1
  F  F2708  1  0.67260820  0.34122960  0.71159880  1
  F  F2709  1  0.67260820  0.34122960  0.91159880  1
  F  F2710  1  0.67260820  0.54122960  0.11159880  1
  F  F2711  1  0.67260820  0.54122960  0.31159880  1
  F  F2712  1  0.67260820  0.54122960  0.51159880  1
  F  F2713  1  0.67260820  0.54122960  0.71159880  1
  F  F2714  1  0.67260820  0.54122960  0.91159880  1
  F  F2715  1  0.67260820  0.74122960  0.11159880  1
  F  F2716  1  0.67260820  0.74122960  0.31159880  1
  F  F2717  1  0.67260820  0.74122960  0.51159880  1
  F  F2718  1  0.67260820  0.74122960  0.71159880  1
  F  F2719  1  0.67260820  0.74122960  0.91159880  1
  F  F2720  1  0.67260820  0.94122960  0.11159880  1
  F  F2721  1  0.67260820  0.94122960  0.31159880  1
  F  F2722  1  0.67260820  0.94122960  0.51159880  1
  F  F2723  1  0.67260820  0.94122960  0.71159880  1
  F  F2724  1  0.67260820  0.94122960  0.91159880  1
  F  F2725  1  0.87260820  0.14122960  0.11159880  1
  F  F2726  1  0.87260820  0.14122960  0.31159880  1
  F  F2727  1  0.87260820  0.14122960  0.51159880  1
  F  F2728  1  0.87260820  0.14122960  0.71159880  1
  F  F2729  1  0.87260820  0.14122960  0.91159880  1
  F  F2730  1  0.87260820  0.34122960  0.11159880  1
  F  F2731  1  0.87260820  0.34122960  0.31159880  1
  F  F2732  1  0.87260820  0.34122960  0.51159880  1
  F  F2733  1  0.87260820  0.34122960  0.71159880  1
  F  F2734  1  0.87260820  0.34122960  0.91159880  1
  F  F2735  1  0.87260820  0.54122960  0.11159880  1
  F  F2736  1  0.87260820  0.54122960  0.31159880  1
  F  F2737  1  0.87260820  0.54122960  0.51159880  1
  F  F2738  1  0.87260820  0.54122960  0.71159880  1
  F  F2739  1  0.87260820  0.54122960  0.91159880  1
  F  F2740  1  0.87260820  0.74122960  0.11159880  1
  F  F2741  1  0.87260820  0.74122960  0.31159880  1
  F  F2742  1  0.87260820  0.74122960  0.51159880  1
  F  F2743  1  0.87260820  0.74122960  0.71159880  1
  F  F2744  1  0.87260820  0.74122960  0.91159880  1
  F  F2745  1  0.87260820  0.94122960  0.11159880  1
  F  F2746  1  0.87260820  0.94122960  0.31159880  1
  F  F2747  1  0.87260820  0.94122960  0.51159880  1
  F  F2748  1  0.87260820  0.94122960  0.71159880  1
  F  F2749  1  0.87260820  0.94122960  0.91159880  1
  F  F2750  1  0.03170480  0.17585220  0.15235860  1
  F  F2751  1  0.03170480  0.17585220  0.35235860  1
  F  F2752  1  0.03170480  0.17585220  0.55235860  1
  F  F2753  1  0.03170480  0.17585220  0.75235860  1
  F  F2754  1  0.03170480  0.17585220  0.95235860  1
  F  F2755  1  0.03170480  0.37585220  0.15235860  1
  F  F2756  1  0.03170480  0.37585220  0.35235860  1
  F  F2757  1  0.03170480  0.37585220  0.55235860  1
  F  F2758  1  0.03170480  0.37585220  0.75235860  1
  F  F2759  1  0.03170480  0.37585220  0.95235860  1
  F  F2760  1  0.03170480  0.57585220  0.15235860  1
  F  F2761  1  0.03170480  0.57585220  0.35235860  1
  F  F2762  1  0.03170480  0.57585220  0.55235860  1
  F  F2763  1  0.03170480  0.57585220  0.75235860  1
  F  F2764  1  0.03170480  0.57585220  0.95235860  1
  F  F2765  1  0.03170480  0.77585220  0.15235860  1
  F  F2766  1  0.03170480  0.77585220  0.35235860  1
  F  F2767  1  0.03170480  0.77585220  0.55235860  1
  F  F2768  1  0.03170480  0.77585220  0.75235860  1
  F  F2769  1  0.03170480  0.77585220  0.95235860  1
  F  F2770  1  0.03170480  0.97585220  0.15235860  1
  F  F2771  1  0.03170480  0.97585220  0.35235860  1
  F  F2772  1  0.03170480  0.97585220  0.55235860  1
  F  F2773  1  0.03170480  0.97585220  0.75235860  1
  F  F2774  1  0.03170480  0.97585220  0.95235860  1
  F  F2775  1  0.23170480  0.17585220  0.15235860  1
  F  F2776  1  0.23170480  0.17585220  0.35235860  1
  F  F2777  1  0.23170480  0.17585220  0.55235860  1
  F  F2778  1  0.23170480  0.17585220  0.75235860  1
  F  F2779  1  0.23170480  0.17585220  0.95235860  1
  F  F2780  1  0.23170480  0.37585220  0.15235860  1
  F  F2781  1  0.23170480  0.37585220  0.35235860  1
  F  F2782  1  0.23170480  0.37585220  0.55235860  1
  F  F2783  1  0.23170480  0.37585220  0.75235860  1
  F  F2784  1  0.23170480  0.37585220  0.95235860  1
  F  F2785  1  0.23170480  0.57585220  0.15235860  1
  F  F2786  1  0.23170480  0.57585220  0.35235860  1
  F  F2787  1  0.23170480  0.57585220  0.55235860  1
  F  F2788  1  0.23170480  0.57585220  0.75235860  1
  F  F2789  1  0.23170480  0.57585220  0.95235860  1
  F  F2790  1  0.23170480  0.77585220  0.15235860  1
  F  F2791  1  0.23170480  0.77585220  0.35235860  1
  F  F2792  1  0.23170480  0.77585220  0.55235860  1
  F  F2793  1  0.23170480  0.77585220  0.75235860  1
  F  F2794  1  0.23170480  0.77585220  0.95235860  1
  F  F2795  1  0.23170480  0.97585220  0.15235860  1
  F  F2796  1  0.23170480  0.97585220  0.35235860  1
  F  F2797  1  0.23170480  0.97585220  0.55235860  1
  F  F2798  1  0.23170480  0.97585220  0.75235860  1
  F  F2799  1  0.23170480  0.97585220  0.95235860  1
  F  F2800  1  0.43170480  0.17585220  0.15235860  1
  F  F2801  1  0.43170480  0.17585220  0.35235860  1
  F  F2802  1  0.43170480  0.17585220  0.55235860  1
  F  F2803  1  0.43170480  0.17585220  0.75235860  1
  F  F2804  1  0.43170480  0.17585220  0.95235860  1
  F  F2805  1  0.43170480  0.37585220  0.15235860  1
  F  F2806  1  0.43170480  0.37585220  0.35235860  1
  F  F2807  1  0.43170480  0.37585220  0.55235860  1
  F  F2808  1  0.43170480  0.37585220  0.75235860  1
  F  F2809  1  0.43170480  0.37585220  0.95235860  1
  F  F2810  1  0.43170480  0.57585220  0.15235860  1
  F  F2811  1  0.43170480  0.57585220  0.35235860  1
  F  F2812  1  0.43170480  0.57585220  0.55235860  1
  F  F2813  1  0.43170480  0.57585220  0.75235860  1
  F  F2814  1  0.43170480  0.57585220  0.95235860  1
  F  F2815  1  0.43170480  0.77585220  0.15235860  1
  F  F2816  1  0.43170480  0.77585220  0.35235860  1
  F  F2817  1  0.43170480  0.77585220  0.55235860  1
  F  F2818  1  0.43170480  0.77585220  0.75235860  1
  F  F2819  1  0.43170480  0.77585220  0.95235860  1
  F  F2820  1  0.43170480  0.97585220  0.15235860  1
  F  F2821  1  0.43170480  0.97585220  0.35235860  1
  F  F2822  1  0.43170480  0.97585220  0.55235860  1
  F  F2823  1  0.43170480  0.97585220  0.75235860  1
  F  F2824  1  0.43170480  0.97585220  0.95235860  1
  F  F2825  1  0.63170480  0.17585220  0.15235860  1
  F  F2826  1  0.63170480  0.17585220  0.35235860  1
  F  F2827  1  0.63170480  0.17585220  0.55235860  1
  F  F2828  1  0.63170480  0.17585220  0.75235860  1
  F  F2829  1  0.63170480  0.17585220  0.95235860  1
  F  F2830  1  0.63170480  0.37585220  0.15235860  1
  F  F2831  1  0.63170480  0.37585220  0.35235860  1
  F  F2832  1  0.63170480  0.37585220  0.55235860  1
  F  F2833  1  0.63170480  0.37585220  0.75235860  1
  F  F2834  1  0.63170480  0.37585220  0.95235860  1
  F  F2835  1  0.63170480  0.57585220  0.15235860  1
  F  F2836  1  0.63170480  0.57585220  0.35235860  1
  F  F2837  1  0.63170480  0.57585220  0.55235860  1
  F  F2838  1  0.63170480  0.57585220  0.75235860  1
  F  F2839  1  0.63170480  0.57585220  0.95235860  1
  F  F2840  1  0.63170480  0.77585220  0.15235860  1
  F  F2841  1  0.63170480  0.77585220  0.35235860  1
  F  F2842  1  0.63170480  0.77585220  0.55235860  1
  F  F2843  1  0.63170480  0.77585220  0.75235860  1
  F  F2844  1  0.63170480  0.77585220  0.95235860  1
  F  F2845  1  0.63170480  0.97585220  0.15235860  1
  F  F2846  1  0.63170480  0.97585220  0.35235860  1
  F  F2847  1  0.63170480  0.97585220  0.55235860  1
  F  F2848  1  0.63170480  0.97585220  0.75235860  1
  F  F2849  1  0.63170480  0.97585220  0.95235860  1
  F  F2850  1  0.83170480  0.17585220  0.15235860  1
  F  F2851  1  0.83170480  0.17585220  0.35235860  1
  F  F2852  1  0.83170480  0.17585220  0.55235860  1
  F  F2853  1  0.83170480  0.17585220  0.75235860  1
  F  F2854  1  0.83170480  0.17585220  0.95235860  1
  F  F2855  1  0.83170480  0.37585220  0.15235860  1
  F  F2856  1  0.83170480  0.37585220  0.35235860  1
  F  F2857  1  0.83170480  0.37585220  0.55235860  1
  F  F2858  1  0.83170480  0.37585220  0.75235860  1
  F  F2859  1  0.83170480  0.37585220  0.95235860  1
  F  F2860  1  0.83170480  0.57585220  0.15235860  1
  F  F2861  1  0.83170480  0.57585220  0.35235860  1
  F  F2862  1  0.83170480  0.57585220  0.55235860  1
  F  F2863  1  0.83170480  0.57585220  0.75235860  1
  F  F2864  1  0.83170480  0.57585220  0.95235860  1
  F  F2865  1  0.83170480  0.77585220  0.15235860  1
  F  F2866  1  0.83170480  0.77585220  0.35235860  1
  F  F2867  1  0.83170480  0.77585220  0.55235860  1
  F  F2868  1  0.83170480  0.77585220  0.75235860  1
  F  F2869  1  0.83170480  0.77585220  0.95235860  1
  F  F2870  1  0.83170480  0.97585220  0.15235860  1
  F  F2871  1  0.83170480  0.97585220  0.35235860  1
  F  F2872  1  0.83170480  0.97585220  0.55235860  1
  F  F2873  1  0.83170480  0.97585220  0.75235860  1
  F  F2874  1  0.83170480  0.97585220  0.95235860  1
  F  F2875  1  0.05585280  0.02414780  0.18097480  1
  F  F2876  1  0.05585280  0.02414780  0.38097480  1
  F  F2877  1  0.05585280  0.02414780  0.58097480  1
  F  F2878  1  0.05585280  0.02414780  0.78097480  1
  F  F2879  1  0.05585280  0.02414780  0.98097480  1
  F  F2880  1  0.05585280  0.22414780  0.18097480  1
  F  F2881  1  0.05585280  0.22414780  0.38097480  1
  F  F2882  1  0.05585280  0.22414780  0.58097480  1
  F  F2883  1  0.05585280  0.22414780  0.78097480  1
  F  F2884  1  0.05585280  0.22414780  0.98097480  1
  F  F2885  1  0.05585280  0.42414780  0.18097480  1
  F  F2886  1  0.05585280  0.42414780  0.38097480  1
  F  F2887  1  0.05585280  0.42414780  0.58097480  1
  F  F2888  1  0.05585280  0.42414780  0.78097480  1
  F  F2889  1  0.05585280  0.42414780  0.98097480  1
  F  F2890  1  0.05585280  0.62414780  0.18097480  1
  F  F2891  1  0.05585280  0.62414780  0.38097480  1
  F  F2892  1  0.05585280  0.62414780  0.58097480  1
  F  F2893  1  0.05585280  0.62414780  0.78097480  1
  F  F2894  1  0.05585280  0.62414780  0.98097480  1
  F  F2895  1  0.05585280  0.82414780  0.18097480  1
  F  F2896  1  0.05585280  0.82414780  0.38097480  1
  F  F2897  1  0.05585280  0.82414780  0.58097480  1
  F  F2898  1  0.05585280  0.82414780  0.78097480  1
  F  F2899  1  0.05585280  0.82414780  0.98097480  1
  F  F2900  1  0.25585280  0.02414780  0.18097480  1
  F  F2901  1  0.25585280  0.02414780  0.38097480  1
  F  F2902  1  0.25585280  0.02414780  0.58097480  1
  F  F2903  1  0.25585280  0.02414780  0.78097480  1
  F  F2904  1  0.25585280  0.02414780  0.98097480  1
  F  F2905  1  0.25585280  0.22414780  0.18097480  1
  F  F2906  1  0.25585280  0.22414780  0.38097480  1
  F  F2907  1  0.25585280  0.22414780  0.58097480  1
  F  F2908  1  0.25585280  0.22414780  0.78097480  1
  F  F2909  1  0.25585280  0.22414780  0.98097480  1
  F  F2910  1  0.25585280  0.42414780  0.18097480  1
  F  F2911  1  0.25585280  0.42414780  0.38097480  1
  F  F2912  1  0.25585280  0.42414780  0.58097480  1
  F  F2913  1  0.25585280  0.42414780  0.78097480  1
  F  F2914  1  0.25585280  0.42414780  0.98097480  1
  F  F2915  1  0.25585280  0.62414780  0.18097480  1
  F  F2916  1  0.25585280  0.62414780  0.38097480  1
  F  F2917  1  0.25585280  0.62414780  0.58097480  1
  F  F2918  1  0.25585280  0.62414780  0.78097480  1
  F  F2919  1  0.25585280  0.62414780  0.98097480  1
  F  F2920  1  0.25585280  0.82414780  0.18097480  1
  F  F2921  1  0.25585280  0.82414780  0.38097480  1
  F  F2922  1  0.25585280  0.82414780  0.58097480  1
  F  F2923  1  0.25585280  0.82414780  0.78097480  1
  F  F2924  1  0.25585280  0.82414780  0.98097480  1
  F  F2925  1  0.45585280  0.02414780  0.18097480  1
  F  F2926  1  0.45585280  0.02414780  0.38097480  1
  F  F2927  1  0.45585280  0.02414780  0.58097480  1
  F  F2928  1  0.45585280  0.02414780  0.78097480  1
  F  F2929  1  0.45585280  0.02414780  0.98097480  1
  F  F2930  1  0.45585280  0.22414780  0.18097480  1
  F  F2931  1  0.45585280  0.22414780  0.38097480  1
  F  F2932  1  0.45585280  0.22414780  0.58097480  1
  F  F2933  1  0.45585280  0.22414780  0.78097480  1
  F  F2934  1  0.45585280  0.22414780  0.98097480  1
  F  F2935  1  0.45585280  0.42414780  0.18097480  1
  F  F2936  1  0.45585280  0.42414780  0.38097480  1
  F  F2937  1  0.45585280  0.42414780  0.58097480  1
  F  F2938  1  0.45585280  0.42414780  0.78097480  1
  F  F2939  1  0.45585280  0.42414780  0.98097480  1
  F  F2940  1  0.45585280  0.62414780  0.18097480  1
  F  F2941  1  0.45585280  0.62414780  0.38097480  1
  F  F2942  1  0.45585280  0.62414780  0.58097480  1
  F  F2943  1  0.45585280  0.62414780  0.78097480  1
  F  F2944  1  0.45585280  0.62414780  0.98097480  1
  F  F2945  1  0.45585280  0.82414780  0.18097480  1
  F  F2946  1  0.45585280  0.82414780  0.38097480  1
  F  F2947  1  0.45585280  0.82414780  0.58097480  1
  F  F2948  1  0.45585280  0.82414780  0.78097480  1
  F  F2949  1  0.45585280  0.82414780  0.98097480  1
  F  F2950  1  0.65585280  0.02414780  0.18097480  1
  F  F2951  1  0.65585280  0.02414780  0.38097480  1
  F  F2952  1  0.65585280  0.02414780  0.58097480  1
  F  F2953  1  0.65585280  0.02414780  0.78097480  1
  F  F2954  1  0.65585280  0.02414780  0.98097480  1
  F  F2955  1  0.65585280  0.22414780  0.18097480  1
  F  F2956  1  0.65585280  0.22414780  0.38097480  1
  F  F2957  1  0.65585280  0.22414780  0.58097480  1
  F  F2958  1  0.65585280  0.22414780  0.78097480  1
  F  F2959  1  0.65585280  0.22414780  0.98097480  1
  F  F2960  1  0.65585280  0.42414780  0.18097480  1
  F  F2961  1  0.65585280  0.42414780  0.38097480  1
  F  F2962  1  0.65585280  0.42414780  0.58097480  1
  F  F2963  1  0.65585280  0.42414780  0.78097480  1
  F  F2964  1  0.65585280  0.42414780  0.98097480  1
  F  F2965  1  0.65585280  0.62414780  0.18097480  1
  F  F2966  1  0.65585280  0.62414780  0.38097480  1
  F  F2967  1  0.65585280  0.62414780  0.58097480  1
  F  F2968  1  0.65585280  0.62414780  0.78097480  1
  F  F2969  1  0.65585280  0.62414780  0.98097480  1
  F  F2970  1  0.65585280  0.82414780  0.18097480  1
  F  F2971  1  0.65585280  0.82414780  0.38097480  1
  F  F2972  1  0.65585280  0.82414780  0.58097480  1
  F  F2973  1  0.65585280  0.82414780  0.78097480  1
  F  F2974  1  0.65585280  0.82414780  0.98097480  1
  F  F2975  1  0.85585280  0.02414780  0.18097480  1
  F  F2976  1  0.85585280  0.02414780  0.38097480  1
  F  F2977  1  0.85585280  0.02414780  0.58097480  1
  F  F2978  1  0.85585280  0.02414780  0.78097480  1
  F  F2979  1  0.85585280  0.02414780  0.98097480  1
  F  F2980  1  0.85585280  0.22414780  0.18097480  1
  F  F2981  1  0.85585280  0.22414780  0.38097480  1
  F  F2982  1  0.85585280  0.22414780  0.58097480  1
  F  F2983  1  0.85585280  0.22414780  0.78097480  1
  F  F2984  1  0.85585280  0.22414780  0.98097480  1
  F  F2985  1  0.85585280  0.42414780  0.18097480  1
  F  F2986  1  0.85585280  0.42414780  0.38097480  1
  F  F2987  1  0.85585280  0.42414780  0.58097480  1
  F  F2988  1  0.85585280  0.42414780  0.78097480  1
  F  F2989  1  0.85585280  0.42414780  0.98097480  1
  F  F2990  1  0.85585280  0.62414780  0.18097480  1
  F  F2991  1  0.85585280  0.62414780  0.38097480  1
  F  F2992  1  0.85585280  0.62414780  0.58097480  1
  F  F2993  1  0.85585280  0.62414780  0.78097480  1
  F  F2994  1  0.85585280  0.62414780  0.98097480  1
  F  F2995  1  0.85585280  0.82414780  0.18097480  1
  F  F2996  1  0.85585280  0.82414780  0.38097480  1
  F  F2997  1  0.85585280  0.82414780  0.58097480  1
  F  F2998  1  0.85585280  0.82414780  0.78097480  1
  F  F2999  1  0.85585280  0.82414780  0.98097480  1
  F  F3000  1  0.16649640  0.12699920  0.17664300  1
  F  F3001  1  0.16649640  0.12699920  0.37664300  1
  F  F3002  1  0.16649640  0.12699920  0.57664300  1
  F  F3003  1  0.16649640  0.12699920  0.77664300  1
  F  F3004  1  0.16649640  0.12699920  0.97664300  1
  F  F3005  1  0.16649640  0.32699920  0.17664300  1
  F  F3006  1  0.16649640  0.32699920  0.37664300  1
  F  F3007  1  0.16649640  0.32699920  0.57664300  1
  F  F3008  1  0.16649640  0.32699920  0.77664300  1
  F  F3009  1  0.16649640  0.32699920  0.97664300  1
  F  F3010  1  0.16649640  0.52699920  0.17664300  1
  F  F3011  1  0.16649640  0.52699920  0.37664300  1
  F  F3012  1  0.16649640  0.52699920  0.57664300  1
  F  F3013  1  0.16649640  0.52699920  0.77664300  1
  F  F3014  1  0.16649640  0.52699920  0.97664300  1
  F  F3015  1  0.16649640  0.72699920  0.17664300  1
  F  F3016  1  0.16649640  0.72699920  0.37664300  1
  F  F3017  1  0.16649640  0.72699920  0.57664300  1
  F  F3018  1  0.16649640  0.72699920  0.77664300  1
  F  F3019  1  0.16649640  0.72699920  0.97664300  1
  F  F3020  1  0.16649640  0.92699920  0.17664300  1
  F  F3021  1  0.16649640  0.92699920  0.37664300  1
  F  F3022  1  0.16649640  0.92699920  0.57664300  1
  F  F3023  1  0.16649640  0.92699920  0.77664300  1
  F  F3024  1  0.16649640  0.92699920  0.97664300  1
  F  F3025  1  0.36649640  0.12699920  0.17664300  1
  F  F3026  1  0.36649640  0.12699920  0.37664300  1
  F  F3027  1  0.36649640  0.12699920  0.57664300  1
  F  F3028  1  0.36649640  0.12699920  0.77664300  1
  F  F3029  1  0.36649640  0.12699920  0.97664300  1
  F  F3030  1  0.36649640  0.32699920  0.17664300  1
  F  F3031  1  0.36649640  0.32699920  0.37664300  1
  F  F3032  1  0.36649640  0.32699920  0.57664300  1
  F  F3033  1  0.36649640  0.32699920  0.77664300  1
  F  F3034  1  0.36649640  0.32699920  0.97664300  1
  F  F3035  1  0.36649640  0.52699920  0.17664300  1
  F  F3036  1  0.36649640  0.52699920  0.37664300  1
  F  F3037  1  0.36649640  0.52699920  0.57664300  1
  F  F3038  1  0.36649640  0.52699920  0.77664300  1
  F  F3039  1  0.36649640  0.52699920  0.97664300  1
  F  F3040  1  0.36649640  0.72699920  0.17664300  1
  F  F3041  1  0.36649640  0.72699920  0.37664300  1
  F  F3042  1  0.36649640  0.72699920  0.57664300  1
  F  F3043  1  0.36649640  0.72699920  0.77664300  1
  F  F3044  1  0.36649640  0.72699920  0.97664300  1
  F  F3045  1  0.36649640  0.92699920  0.17664300  1
  F  F3046  1  0.36649640  0.92699920  0.37664300  1
  F  F3047  1  0.36649640  0.92699920  0.57664300  1
  F  F3048  1  0.36649640  0.92699920  0.77664300  1
  F  F3049  1  0.36649640  0.92699920  0.97664300  1
  F  F3050  1  0.56649640  0.12699920  0.17664300  1
  F  F3051  1  0.56649640  0.12699920  0.37664300  1
  F  F3052  1  0.56649640  0.12699920  0.57664300  1
  F  F3053  1  0.56649640  0.12699920  0.77664300  1
  F  F3054  1  0.56649640  0.12699920  0.97664300  1
  F  F3055  1  0.56649640  0.32699920  0.17664300  1
  F  F3056  1  0.56649640  0.32699920  0.37664300  1
  F  F3057  1  0.56649640  0.32699920  0.57664300  1
  F  F3058  1  0.56649640  0.32699920  0.77664300  1
  F  F3059  1  0.56649640  0.32699920  0.97664300  1
  F  F3060  1  0.56649640  0.52699920  0.17664300  1
  F  F3061  1  0.56649640  0.52699920  0.37664300  1
  F  F3062  1  0.56649640  0.52699920  0.57664300  1
  F  F3063  1  0.56649640  0.52699920  0.77664300  1
  F  F3064  1  0.56649640  0.52699920  0.97664300  1
  F  F3065  1  0.56649640  0.72699920  0.17664300  1
  F  F3066  1  0.56649640  0.72699920  0.37664300  1
  F  F3067  1  0.56649640  0.72699920  0.57664300  1
  F  F3068  1  0.56649640  0.72699920  0.77664300  1
  F  F3069  1  0.56649640  0.72699920  0.97664300  1
  F  F3070  1  0.56649640  0.92699920  0.17664300  1
  F  F3071  1  0.56649640  0.92699920  0.37664300  1
  F  F3072  1  0.56649640  0.92699920  0.57664300  1
  F  F3073  1  0.56649640  0.92699920  0.77664300  1
  F  F3074  1  0.56649640  0.92699920  0.97664300  1
  F  F3075  1  0.76649640  0.12699920  0.17664300  1
  F  F3076  1  0.76649640  0.12699920  0.37664300  1
  F  F3077  1  0.76649640  0.12699920  0.57664300  1
  F  F3078  1  0.76649640  0.12699920  0.77664300  1
  F  F3079  1  0.76649640  0.12699920  0.97664300  1
  F  F3080  1  0.76649640  0.32699920  0.17664300  1
  F  F3081  1  0.76649640  0.32699920  0.37664300  1
  F  F3082  1  0.76649640  0.32699920  0.57664300  1
  F  F3083  1  0.76649640  0.32699920  0.77664300  1
  F  F3084  1  0.76649640  0.32699920  0.97664300  1
  F  F3085  1  0.76649640  0.52699920  0.17664300  1
  F  F3086  1  0.76649640  0.52699920  0.37664300  1
  F  F3087  1  0.76649640  0.52699920  0.57664300  1
  F  F3088  1  0.76649640  0.52699920  0.77664300  1
  F  F3089  1  0.76649640  0.52699920  0.97664300  1
  F  F3090  1  0.76649640  0.72699920  0.17664300  1
  F  F3091  1  0.76649640  0.72699920  0.37664300  1
  F  F3092  1  0.76649640  0.72699920  0.57664300  1
  F  F3093  1  0.76649640  0.72699920  0.77664300  1
  F  F3094  1  0.76649640  0.72699920  0.97664300  1
  F  F3095  1  0.76649640  0.92699920  0.17664300  1
  F  F3096  1  0.76649640  0.92699920  0.37664300  1
  F  F3097  1  0.76649640  0.92699920  0.57664300  1
  F  F3098  1  0.76649640  0.92699920  0.77664300  1
  F  F3099  1  0.76649640  0.92699920  0.97664300  1
  F  F3100  1  0.96649640  0.12699920  0.17664300  1
  F  F3101  1  0.96649640  0.12699920  0.37664300  1
  F  F3102  1  0.96649640  0.12699920  0.57664300  1
  F  F3103  1  0.96649640  0.12699920  0.77664300  1
  F  F3104  1  0.96649640  0.12699920  0.97664300  1
  F  F3105  1  0.96649640  0.32699920  0.17664300  1
  F  F3106  1  0.96649640  0.32699920  0.37664300  1
  F  F3107  1  0.96649640  0.32699920  0.57664300  1
  F  F3108  1  0.96649640  0.32699920  0.77664300  1
  F  F3109  1  0.96649640  0.32699920  0.97664300  1
  F  F3110  1  0.96649640  0.52699920  0.17664300  1
  F  F3111  1  0.96649640  0.52699920  0.37664300  1
  F  F3112  1  0.96649640  0.52699920  0.57664300  1
  F  F3113  1  0.96649640  0.52699920  0.77664300  1
  F  F3114  1  0.96649640  0.52699920  0.97664300  1
  F  F3115  1  0.96649640  0.72699920  0.17664300  1
  F  F3116  1  0.96649640  0.72699920  0.37664300  1
  F  F3117  1  0.96649640  0.72699920  0.57664300  1
  F  F3118  1  0.96649640  0.72699920  0.77664300  1
  F  F3119  1  0.96649640  0.72699920  0.97664300  1
  F  F3120  1  0.96649640  0.92699920  0.17664300  1
  F  F3121  1  0.96649640  0.92699920  0.37664300  1
  F  F3122  1  0.96649640  0.92699920  0.57664300  1
  F  F3123  1  0.96649640  0.92699920  0.77664300  1
  F  F3124  1  0.96649640  0.92699920  0.97664300  1
  F  F3125  1  0.13137860  0.05877040  0.02173460  1
  F  F3126  1  0.13137860  0.05877040  0.22173460  1
  F  F3127  1  0.13137860  0.05877040  0.42173460  1
  F  F3128  1  0.13137860  0.05877040  0.62173460  1
  F  F3129  1  0.13137860  0.05877040  0.82173460  1
  F  F3130  1  0.13137860  0.25877040  0.02173460  1
  F  F3131  1  0.13137860  0.25877040  0.22173460  1
  F  F3132  1  0.13137860  0.25877040  0.42173460  1
  F  F3133  1  0.13137860  0.25877040  0.62173460  1
  F  F3134  1  0.13137860  0.25877040  0.82173460  1
  F  F3135  1  0.13137860  0.45877040  0.02173460  1
  F  F3136  1  0.13137860  0.45877040  0.22173460  1
  F  F3137  1  0.13137860  0.45877040  0.42173460  1
  F  F3138  1  0.13137860  0.45877040  0.62173460  1
  F  F3139  1  0.13137860  0.45877040  0.82173460  1
  F  F3140  1  0.13137860  0.65877040  0.02173460  1
  F  F3141  1  0.13137860  0.65877040  0.22173460  1
  F  F3142  1  0.13137860  0.65877040  0.42173460  1
  F  F3143  1  0.13137860  0.65877040  0.62173460  1
  F  F3144  1  0.13137860  0.65877040  0.82173460  1
  F  F3145  1  0.13137860  0.85877040  0.02173460  1
  F  F3146  1  0.13137860  0.85877040  0.22173460  1
  F  F3147  1  0.13137860  0.85877040  0.42173460  1
  F  F3148  1  0.13137860  0.85877040  0.62173460  1
  F  F3149  1  0.13137860  0.85877040  0.82173460  1
  F  F3150  1  0.33137860  0.05877040  0.02173460  1
  F  F3151  1  0.33137860  0.05877040  0.22173460  1
  F  F3152  1  0.33137860  0.05877040  0.42173460  1
  F  F3153  1  0.33137860  0.05877040  0.62173460  1
  F  F3154  1  0.33137860  0.05877040  0.82173460  1
  F  F3155  1  0.33137860  0.25877040  0.02173460  1
  F  F3156  1  0.33137860  0.25877040  0.22173460  1
  F  F3157  1  0.33137860  0.25877040  0.42173460  1
  F  F3158  1  0.33137860  0.25877040  0.62173460  1
  F  F3159  1  0.33137860  0.25877040  0.82173460  1
  F  F3160  1  0.33137860  0.45877040  0.02173460  1
  F  F3161  1  0.33137860  0.45877040  0.22173460  1
  F  F3162  1  0.33137860  0.45877040  0.42173460  1
  F  F3163  1  0.33137860  0.45877040  0.62173460  1
  F  F3164  1  0.33137860  0.45877040  0.82173460  1
  F  F3165  1  0.33137860  0.65877040  0.02173460  1
  F  F3166  1  0.33137860  0.65877040  0.22173460  1
  F  F3167  1  0.33137860  0.65877040  0.42173460  1
  F  F3168  1  0.33137860  0.65877040  0.62173460  1
  F  F3169  1  0.33137860  0.65877040  0.82173460  1
  F  F3170  1  0.33137860  0.85877040  0.02173460  1
  F  F3171  1  0.33137860  0.85877040  0.22173460  1
  F  F3172  1  0.33137860  0.85877040  0.42173460  1
  F  F3173  1  0.33137860  0.85877040  0.62173460  1
  F  F3174  1  0.33137860  0.85877040  0.82173460  1
  F  F3175  1  0.53137860  0.05877040  0.02173460  1
  F  F3176  1  0.53137860  0.05877040  0.22173460  1
  F  F3177  1  0.53137860  0.05877040  0.42173460  1
  F  F3178  1  0.53137860  0.05877040  0.62173460  1
  F  F3179  1  0.53137860  0.05877040  0.82173460  1
  F  F3180  1  0.53137860  0.25877040  0.02173460  1
  F  F3181  1  0.53137860  0.25877040  0.22173460  1
  F  F3182  1  0.53137860  0.25877040  0.42173460  1
  F  F3183  1  0.53137860  0.25877040  0.62173460  1
  F  F3184  1  0.53137860  0.25877040  0.82173460  1
  F  F3185  1  0.53137860  0.45877040  0.02173460  1
  F  F3186  1  0.53137860  0.45877040  0.22173460  1
  F  F3187  1  0.53137860  0.45877040  0.42173460  1
  F  F3188  1  0.53137860  0.45877040  0.62173460  1
  F  F3189  1  0.53137860  0.45877040  0.82173460  1
  F  F3190  1  0.53137860  0.65877040  0.02173460  1
  F  F3191  1  0.53137860  0.65877040  0.22173460  1
  F  F3192  1  0.53137860  0.65877040  0.42173460  1
  F  F3193  1  0.53137860  0.65877040  0.62173460  1
  F  F3194  1  0.53137860  0.65877040  0.82173460  1
  F  F3195  1  0.53137860  0.85877040  0.02173460  1
  F  F3196  1  0.53137860  0.85877040  0.22173460  1
  F  F3197  1  0.53137860  0.85877040  0.42173460  1
  F  F3198  1  0.53137860  0.85877040  0.62173460  1
  F  F3199  1  0.53137860  0.85877040  0.82173460  1
  F  F3200  1  0.73137860  0.05877040  0.02173460  1
  F  F3201  1  0.73137860  0.05877040  0.22173460  1
  F  F3202  1  0.73137860  0.05877040  0.42173460  1
  F  F3203  1  0.73137860  0.05877040  0.62173460  1
  F  F3204  1  0.73137860  0.05877040  0.82173460  1
  F  F3205  1  0.73137860  0.25877040  0.02173460  1
  F  F3206  1  0.73137860  0.25877040  0.22173460  1
  F  F3207  1  0.73137860  0.25877040  0.42173460  1
  F  F3208  1  0.73137860  0.25877040  0.62173460  1
  F  F3209  1  0.73137860  0.25877040  0.82173460  1
  F  F3210  1  0.73137860  0.45877040  0.02173460  1
  F  F3211  1  0.73137860  0.45877040  0.22173460  1
  F  F3212  1  0.73137860  0.45877040  0.42173460  1
  F  F3213  1  0.73137860  0.45877040  0.62173460  1
  F  F3214  1  0.73137860  0.45877040  0.82173460  1
  F  F3215  1  0.73137860  0.65877040  0.02173460  1
  F  F3216  1  0.73137860  0.65877040  0.22173460  1
  F  F3217  1  0.73137860  0.65877040  0.42173460  1
  F  F3218  1  0.73137860  0.65877040  0.62173460  1
  F  F3219  1  0.73137860  0.65877040  0.82173460  1
  F  F3220  1  0.73137860  0.85877040  0.02173460  1
  F  F3221  1  0.73137860  0.85877040  0.22173460  1
  F  F3222  1  0.73137860  0.85877040  0.42173460  1
  F  F3223  1  0.73137860  0.85877040  0.62173460  1
  F  F3224  1  0.73137860  0.85877040  0.82173460  1
  F  F3225  1  0.93137860  0.05877040  0.02173460  1
  F  F3226  1  0.93137860  0.05877040  0.22173460  1
  F  F3227  1  0.93137860  0.05877040  0.42173460  1
  F  F3228  1  0.93137860  0.05877040  0.62173460  1
  F  F3229  1  0.93137860  0.05877040  0.82173460  1
  F  F3230  1  0.93137860  0.25877040  0.02173460  1
  F  F3231  1  0.93137860  0.25877040  0.22173460  1
  F  F3232  1  0.93137860  0.25877040  0.42173460  1
  F  F3233  1  0.93137860  0.25877040  0.62173460  1
  F  F3234  1  0.93137860  0.25877040  0.82173460  1
  F  F3235  1  0.93137860  0.45877040  0.02173460  1
  F  F3236  1  0.93137860  0.45877040  0.22173460  1
  F  F3237  1  0.93137860  0.45877040  0.42173460  1
  F  F3238  1  0.93137860  0.45877040  0.62173460  1
  F  F3239  1  0.93137860  0.45877040  0.82173460  1
  F  F3240  1  0.93137860  0.65877040  0.02173460  1
  F  F3241  1  0.93137860  0.65877040  0.22173460  1
  F  F3242  1  0.93137860  0.65877040  0.42173460  1
  F  F3243  1  0.93137860  0.65877040  0.62173460  1
  F  F3244  1  0.93137860  0.65877040  0.82173460  1
  F  F3245  1  0.93137860  0.85877040  0.02173460  1
  F  F3246  1  0.93137860  0.85877040  0.22173460  1
  F  F3247  1  0.93137860  0.85877040  0.42173460  1
  F  F3248  1  0.93137860  0.85877040  0.62173460  1
  F  F3249  1  0.93137860  0.85877040  0.82173460  1
  F  F3250  1  0.12699920  0.16649640  0.02335700  1
  F  F3251  1  0.12699920  0.16649640  0.22335700  1
  F  F3252  1  0.12699920  0.16649640  0.42335700  1
  F  F3253  1  0.12699920  0.16649640  0.62335700  1
  F  F3254  1  0.12699920  0.16649640  0.82335700  1
  F  F3255  1  0.12699920  0.36649640  0.02335700  1
  F  F3256  1  0.12699920  0.36649640  0.22335700  1
  F  F3257  1  0.12699920  0.36649640  0.42335700  1
  F  F3258  1  0.12699920  0.36649640  0.62335700  1
  F  F3259  1  0.12699920  0.36649640  0.82335700  1
  F  F3260  1  0.12699920  0.56649640  0.02335700  1
  F  F3261  1  0.12699920  0.56649640  0.22335700  1
  F  F3262  1  0.12699920  0.56649640  0.42335700  1
  F  F3263  1  0.12699920  0.56649640  0.62335700  1
  F  F3264  1  0.12699920  0.56649640  0.82335700  1
  F  F3265  1  0.12699920  0.76649640  0.02335700  1
  F  F3266  1  0.12699920  0.76649640  0.22335700  1
  F  F3267  1  0.12699920  0.76649640  0.42335700  1
  F  F3268  1  0.12699920  0.76649640  0.62335700  1
  F  F3269  1  0.12699920  0.76649640  0.82335700  1
  F  F3270  1  0.12699920  0.96649640  0.02335700  1
  F  F3271  1  0.12699920  0.96649640  0.22335700  1
  F  F3272  1  0.12699920  0.96649640  0.42335700  1
  F  F3273  1  0.12699920  0.96649640  0.62335700  1
  F  F3274  1  0.12699920  0.96649640  0.82335700  1
  F  F3275  1  0.32699920  0.16649640  0.02335700  1
  F  F3276  1  0.32699920  0.16649640  0.22335700  1
  F  F3277  1  0.32699920  0.16649640  0.42335700  1
  F  F3278  1  0.32699920  0.16649640  0.62335700  1
  F  F3279  1  0.32699920  0.16649640  0.82335700  1
  F  F3280  1  0.32699920  0.36649640  0.02335700  1
  F  F3281  1  0.32699920  0.36649640  0.22335700  1
  F  F3282  1  0.32699920  0.36649640  0.42335700  1
  F  F3283  1  0.32699920  0.36649640  0.62335700  1
  F  F3284  1  0.32699920  0.36649640  0.82335700  1
  F  F3285  1  0.32699920  0.56649640  0.02335700  1
  F  F3286  1  0.32699920  0.56649640  0.22335700  1
  F  F3287  1  0.32699920  0.56649640  0.42335700  1
  F  F3288  1  0.32699920  0.56649640  0.62335700  1
  F  F3289  1  0.32699920  0.56649640  0.82335700  1
  F  F3290  1  0.32699920  0.76649640  0.02335700  1
  F  F3291  1  0.32699920  0.76649640  0.22335700  1
  F  F3292  1  0.32699920  0.76649640  0.42335700  1
  F  F3293  1  0.32699920  0.76649640  0.62335700  1
  F  F3294  1  0.32699920  0.76649640  0.82335700  1
  F  F3295  1  0.32699920  0.96649640  0.02335700  1
  F  F3296  1  0.32699920  0.96649640  0.22335700  1
  F  F3297  1  0.32699920  0.96649640  0.42335700  1
  F  F3298  1  0.32699920  0.96649640  0.62335700  1
  F  F3299  1  0.32699920  0.96649640  0.82335700  1
  F  F3300  1  0.52699920  0.16649640  0.02335700  1
  F  F3301  1  0.52699920  0.16649640  0.22335700  1
  F  F3302  1  0.52699920  0.16649640  0.42335700  1
  F  F3303  1  0.52699920  0.16649640  0.62335700  1
  F  F3304  1  0.52699920  0.16649640  0.82335700  1
  F  F3305  1  0.52699920  0.36649640  0.02335700  1
  F  F3306  1  0.52699920  0.36649640  0.22335700  1
  F  F3307  1  0.52699920  0.36649640  0.42335700  1
  F  F3308  1  0.52699920  0.36649640  0.62335700  1
  F  F3309  1  0.52699920  0.36649640  0.82335700  1
  F  F3310  1  0.52699920  0.56649640  0.02335700  1
  F  F3311  1  0.52699920  0.56649640  0.22335700  1
  F  F3312  1  0.52699920  0.56649640  0.42335700  1
  F  F3313  1  0.52699920  0.56649640  0.62335700  1
  F  F3314  1  0.52699920  0.56649640  0.82335700  1
  F  F3315  1  0.52699920  0.76649640  0.02335700  1
  F  F3316  1  0.52699920  0.76649640  0.22335700  1
  F  F3317  1  0.52699920  0.76649640  0.42335700  1
  F  F3318  1  0.52699920  0.76649640  0.62335700  1
  F  F3319  1  0.52699920  0.76649640  0.82335700  1
  F  F3320  1  0.52699920  0.96649640  0.02335700  1
  F  F3321  1  0.52699920  0.96649640  0.22335700  1
  F  F3322  1  0.52699920  0.96649640  0.42335700  1
  F  F3323  1  0.52699920  0.96649640  0.62335700  1
  F  F3324  1  0.52699920  0.96649640  0.82335700  1
  F  F3325  1  0.72699920  0.16649640  0.02335700  1
  F  F3326  1  0.72699920  0.16649640  0.22335700  1
  F  F3327  1  0.72699920  0.16649640  0.42335700  1
  F  F3328  1  0.72699920  0.16649640  0.62335700  1
  F  F3329  1  0.72699920  0.16649640  0.82335700  1
  F  F3330  1  0.72699920  0.36649640  0.02335700  1
  F  F3331  1  0.72699920  0.36649640  0.22335700  1
  F  F3332  1  0.72699920  0.36649640  0.42335700  1
  F  F3333  1  0.72699920  0.36649640  0.62335700  1
  F  F3334  1  0.72699920  0.36649640  0.82335700  1
  F  F3335  1  0.72699920  0.56649640  0.02335700  1
  F  F3336  1  0.72699920  0.56649640  0.22335700  1
  F  F3337  1  0.72699920  0.56649640  0.42335700  1
  F  F3338  1  0.72699920  0.56649640  0.62335700  1
  F  F3339  1  0.72699920  0.56649640  0.82335700  1
  F  F3340  1  0.72699920  0.76649640  0.02335700  1
  F  F3341  1  0.72699920  0.76649640  0.22335700  1
  F  F3342  1  0.72699920  0.76649640  0.42335700  1
  F  F3343  1  0.72699920  0.76649640  0.62335700  1
  F  F3344  1  0.72699920  0.76649640  0.82335700  1
  F  F3345  1  0.72699920  0.96649640  0.02335700  1
  F  F3346  1  0.72699920  0.96649640  0.22335700  1
  F  F3347  1  0.72699920  0.96649640  0.42335700  1
  F  F3348  1  0.72699920  0.96649640  0.62335700  1
  F  F3349  1  0.72699920  0.96649640  0.82335700  1
  F  F3350  1  0.92699920  0.16649640  0.02335700  1
  F  F3351  1  0.92699920  0.16649640  0.22335700  1
  F  F3352  1  0.92699920  0.16649640  0.42335700  1
  F  F3353  1  0.92699920  0.16649640  0.62335700  1
  F  F3354  1  0.92699920  0.16649640  0.82335700  1
  F  F3355  1  0.92699920  0.36649640  0.02335700  1
  F  F3356  1  0.92699920  0.36649640  0.22335700  1
  F  F3357  1  0.92699920  0.36649640  0.42335700  1
  F  F3358  1  0.92699920  0.36649640  0.62335700  1
  F  F3359  1  0.92699920  0.36649640  0.82335700  1
  F  F3360  1  0.92699920  0.56649640  0.02335700  1
  F  F3361  1  0.92699920  0.56649640  0.22335700  1
  F  F3362  1  0.92699920  0.56649640  0.42335700  1
  F  F3363  1  0.92699920  0.56649640  0.62335700  1
  F  F3364  1  0.92699920  0.56649640  0.82335700  1
  F  F3365  1  0.92699920  0.76649640  0.02335700  1
  F  F3366  1  0.92699920  0.76649640  0.22335700  1
  F  F3367  1  0.92699920  0.76649640  0.42335700  1
  F  F3368  1  0.92699920  0.76649640  0.62335700  1
  F  F3369  1  0.92699920  0.76649640  0.82335700  1
  F  F3370  1  0.92699920  0.96649640  0.02335700  1
  F  F3371  1  0.92699920  0.96649640  0.22335700  1
  F  F3372  1  0.92699920  0.96649640  0.42335700  1
  F  F3373  1  0.92699920  0.96649640  0.62335700  1
  F  F3374  1  0.92699920  0.96649640  0.82335700  1
  F  F3375  1  0.03949720  0.07300080  0.15669040  1
  F  F3376  1  0.03949720  0.07300080  0.35669040  1
  F  F3377  1  0.03949720  0.07300080  0.55669040  1
  F  F3378  1  0.03949720  0.07300080  0.75669040  1
  F  F3379  1  0.03949720  0.07300080  0.95669040  1
  F  F3380  1  0.03949720  0.27300080  0.15669040  1
  F  F3381  1  0.03949720  0.27300080  0.35669040  1
  F  F3382  1  0.03949720  0.27300080  0.55669040  1
  F  F3383  1  0.03949720  0.27300080  0.75669040  1
  F  F3384  1  0.03949720  0.27300080  0.95669040  1
  F  F3385  1  0.03949720  0.47300080  0.15669040  1
  F  F3386  1  0.03949720  0.47300080  0.35669040  1
  F  F3387  1  0.03949720  0.47300080  0.55669040  1
  F  F3388  1  0.03949720  0.47300080  0.75669040  1
  F  F3389  1  0.03949720  0.47300080  0.95669040  1
  F  F3390  1  0.03949720  0.67300080  0.15669040  1
  F  F3391  1  0.03949720  0.67300080  0.35669040  1
  F  F3392  1  0.03949720  0.67300080  0.55669040  1
  F  F3393  1  0.03949720  0.67300080  0.75669040  1
  F  F3394  1  0.03949720  0.67300080  0.95669040  1
  F  F3395  1  0.03949720  0.87300080  0.15669040  1
  F  F3396  1  0.03949720  0.87300080  0.35669040  1
  F  F3397  1  0.03949720  0.87300080  0.55669040  1
  F  F3398  1  0.03949720  0.87300080  0.75669040  1
  F  F3399  1  0.03949720  0.87300080  0.95669040  1
  F  F3400  1  0.23949720  0.07300080  0.15669040  1
  F  F3401  1  0.23949720  0.07300080  0.35669040  1
  F  F3402  1  0.23949720  0.07300080  0.55669040  1
  F  F3403  1  0.23949720  0.07300080  0.75669040  1
  F  F3404  1  0.23949720  0.07300080  0.95669040  1
  F  F3405  1  0.23949720  0.27300080  0.15669040  1
  F  F3406  1  0.23949720  0.27300080  0.35669040  1
  F  F3407  1  0.23949720  0.27300080  0.55669040  1
  F  F3408  1  0.23949720  0.27300080  0.75669040  1
  F  F3409  1  0.23949720  0.27300080  0.95669040  1
  F  F3410  1  0.23949720  0.47300080  0.15669040  1
  F  F3411  1  0.23949720  0.47300080  0.35669040  1
  F  F3412  1  0.23949720  0.47300080  0.55669040  1
  F  F3413  1  0.23949720  0.47300080  0.75669040  1
  F  F3414  1  0.23949720  0.47300080  0.95669040  1
  F  F3415  1  0.23949720  0.67300080  0.15669040  1
  F  F3416  1  0.23949720  0.67300080  0.35669040  1
  F  F3417  1  0.23949720  0.67300080  0.55669040  1
  F  F3418  1  0.23949720  0.67300080  0.75669040  1
  F  F3419  1  0.23949720  0.67300080  0.95669040  1
  F  F3420  1  0.23949720  0.87300080  0.15669040  1
  F  F3421  1  0.23949720  0.87300080  0.35669040  1
  F  F3422  1  0.23949720  0.87300080  0.55669040  1
  F  F3423  1  0.23949720  0.87300080  0.75669040  1
  F  F3424  1  0.23949720  0.87300080  0.95669040  1
  F  F3425  1  0.43949720  0.07300080  0.15669040  1
  F  F3426  1  0.43949720  0.07300080  0.35669040  1
  F  F3427  1  0.43949720  0.07300080  0.55669040  1
  F  F3428  1  0.43949720  0.07300080  0.75669040  1
  F  F3429  1  0.43949720  0.07300080  0.95669040  1
  F  F3430  1  0.43949720  0.27300080  0.15669040  1
  F  F3431  1  0.43949720  0.27300080  0.35669040  1
  F  F3432  1  0.43949720  0.27300080  0.55669040  1
  F  F3433  1  0.43949720  0.27300080  0.75669040  1
  F  F3434  1  0.43949720  0.27300080  0.95669040  1
  F  F3435  1  0.43949720  0.47300080  0.15669040  1
  F  F3436  1  0.43949720  0.47300080  0.35669040  1
  F  F3437  1  0.43949720  0.47300080  0.55669040  1
  F  F3438  1  0.43949720  0.47300080  0.75669040  1
  F  F3439  1  0.43949720  0.47300080  0.95669040  1
  F  F3440  1  0.43949720  0.67300080  0.15669040  1
  F  F3441  1  0.43949720  0.67300080  0.35669040  1
  F  F3442  1  0.43949720  0.67300080  0.55669040  1
  F  F3443  1  0.43949720  0.67300080  0.75669040  1
  F  F3444  1  0.43949720  0.67300080  0.95669040  1
  F  F3445  1  0.43949720  0.87300080  0.15669040  1
  F  F3446  1  0.43949720  0.87300080  0.35669040  1
  F  F3447  1  0.43949720  0.87300080  0.55669040  1
  F  F3448  1  0.43949720  0.87300080  0.75669040  1
  F  F3449  1  0.43949720  0.87300080  0.95669040  1
  F  F3450  1  0.63949720  0.07300080  0.15669040  1
  F  F3451  1  0.63949720  0.07300080  0.35669040  1
  F  F3452  1  0.63949720  0.07300080  0.55669040  1
  F  F3453  1  0.63949720  0.07300080  0.75669040  1
  F  F3454  1  0.63949720  0.07300080  0.95669040  1
  F  F3455  1  0.63949720  0.27300080  0.15669040  1
  F  F3456  1  0.63949720  0.27300080  0.35669040  1
  F  F3457  1  0.63949720  0.27300080  0.55669040  1
  F  F3458  1  0.63949720  0.27300080  0.75669040  1
  F  F3459  1  0.63949720  0.27300080  0.95669040  1
  F  F3460  1  0.63949720  0.47300080  0.15669040  1
  F  F3461  1  0.63949720  0.47300080  0.35669040  1
  F  F3462  1  0.63949720  0.47300080  0.55669040  1
  F  F3463  1  0.63949720  0.47300080  0.75669040  1
  F  F3464  1  0.63949720  0.47300080  0.95669040  1
  F  F3465  1  0.63949720  0.67300080  0.15669040  1
  F  F3466  1  0.63949720  0.67300080  0.35669040  1
  F  F3467  1  0.63949720  0.67300080  0.55669040  1
  F  F3468  1  0.63949720  0.67300080  0.75669040  1
  F  F3469  1  0.63949720  0.67300080  0.95669040  1
  F  F3470  1  0.63949720  0.87300080  0.15669040  1
  F  F3471  1  0.63949720  0.87300080  0.35669040  1
  F  F3472  1  0.63949720  0.87300080  0.55669040  1
  F  F3473  1  0.63949720  0.87300080  0.75669040  1
  F  F3474  1  0.63949720  0.87300080  0.95669040  1
  F  F3475  1  0.83949720  0.07300080  0.15669040  1
  F  F3476  1  0.83949720  0.07300080  0.35669040  1
  F  F3477  1  0.83949720  0.07300080  0.55669040  1
  F  F3478  1  0.83949720  0.07300080  0.75669040  1
  F  F3479  1  0.83949720  0.07300080  0.95669040  1
  F  F3480  1  0.83949720  0.27300080  0.15669040  1
  F  F3481  1  0.83949720  0.27300080  0.35669040  1
  F  F3482  1  0.83949720  0.27300080  0.55669040  1
  F  F3483  1  0.83949720  0.27300080  0.75669040  1
  F  F3484  1  0.83949720  0.27300080  0.95669040  1
  F  F3485  1  0.83949720  0.47300080  0.15669040  1
  F  F3486  1  0.83949720  0.47300080  0.35669040  1
  F  F3487  1  0.83949720  0.47300080  0.55669040  1
  F  F3488  1  0.83949720  0.47300080  0.75669040  1
  F  F3489  1  0.83949720  0.47300080  0.95669040  1
  F  F3490  1  0.83949720  0.67300080  0.15669040  1
  F  F3491  1  0.83949720  0.67300080  0.35669040  1
  F  F3492  1  0.83949720  0.67300080  0.55669040  1
  F  F3493  1  0.83949720  0.67300080  0.75669040  1
  F  F3494  1  0.83949720  0.67300080  0.95669040  1
  F  F3495  1  0.83949720  0.87300080  0.15669040  1
  F  F3496  1  0.83949720  0.87300080  0.35669040  1
  F  F3497  1  0.83949720  0.87300080  0.55669040  1
  F  F3498  1  0.83949720  0.87300080  0.75669040  1
  F  F3499  1  0.83949720  0.87300080  0.95669040  1
  F  F3500  1  0.03350360  0.16050280  0.09002360  1
  F  F3501  1  0.03350360  0.16050280  0.29002360  1
  F  F3502  1  0.03350360  0.16050280  0.49002360  1
  F  F3503  1  0.03350360  0.16050280  0.69002360  1
  F  F3504  1  0.03350360  0.16050280  0.89002360  1
  F  F3505  1  0.03350360  0.36050280  0.09002360  1
  F  F3506  1  0.03350360  0.36050280  0.29002360  1
  F  F3507  1  0.03350360  0.36050280  0.49002360  1
  F  F3508  1  0.03350360  0.36050280  0.69002360  1
  F  F3509  1  0.03350360  0.36050280  0.89002360  1
  F  F3510  1  0.03350360  0.56050280  0.09002360  1
  F  F3511  1  0.03350360  0.56050280  0.29002360  1
  F  F3512  1  0.03350360  0.56050280  0.49002360  1
  F  F3513  1  0.03350360  0.56050280  0.69002360  1
  F  F3514  1  0.03350360  0.56050280  0.89002360  1
  F  F3515  1  0.03350360  0.76050280  0.09002360  1
  F  F3516  1  0.03350360  0.76050280  0.29002360  1
  F  F3517  1  0.03350360  0.76050280  0.49002360  1
  F  F3518  1  0.03350360  0.76050280  0.69002360  1
  F  F3519  1  0.03350360  0.76050280  0.89002360  1
  F  F3520  1  0.03350360  0.96050280  0.09002360  1
  F  F3521  1  0.03350360  0.96050280  0.29002360  1
  F  F3522  1  0.03350360  0.96050280  0.49002360  1
  F  F3523  1  0.03350360  0.96050280  0.69002360  1
  F  F3524  1  0.03350360  0.96050280  0.89002360  1
  F  F3525  1  0.23350360  0.16050280  0.09002360  1
  F  F3526  1  0.23350360  0.16050280  0.29002360  1
  F  F3527  1  0.23350360  0.16050280  0.49002360  1
  F  F3528  1  0.23350360  0.16050280  0.69002360  1
  F  F3529  1  0.23350360  0.16050280  0.89002360  1
  F  F3530  1  0.23350360  0.36050280  0.09002360  1
  F  F3531  1  0.23350360  0.36050280  0.29002360  1
  F  F3532  1  0.23350360  0.36050280  0.49002360  1
  F  F3533  1  0.23350360  0.36050280  0.69002360  1
  F  F3534  1  0.23350360  0.36050280  0.89002360  1
  F  F3535  1  0.23350360  0.56050280  0.09002360  1
  F  F3536  1  0.23350360  0.56050280  0.29002360  1
  F  F3537  1  0.23350360  0.56050280  0.49002360  1
  F  F3538  1  0.23350360  0.56050280  0.69002360  1
  F  F3539  1  0.23350360  0.56050280  0.89002360  1
  F  F3540  1  0.23350360  0.76050280  0.09002360  1
  F  F3541  1  0.23350360  0.76050280  0.29002360  1
  F  F3542  1  0.23350360  0.76050280  0.49002360  1
  F  F3543  1  0.23350360  0.76050280  0.69002360  1
  F  F3544  1  0.23350360  0.76050280  0.89002360  1
  F  F3545  1  0.23350360  0.96050280  0.09002360  1
  F  F3546  1  0.23350360  0.96050280  0.29002360  1
  F  F3547  1  0.23350360  0.96050280  0.49002360  1
  F  F3548  1  0.23350360  0.96050280  0.69002360  1
  F  F3549  1  0.23350360  0.96050280  0.89002360  1
  F  F3550  1  0.43350360  0.16050280  0.09002360  1
  F  F3551  1  0.43350360  0.16050280  0.29002360  1
  F  F3552  1  0.43350360  0.16050280  0.49002360  1
  F  F3553  1  0.43350360  0.16050280  0.69002360  1
  F  F3554  1  0.43350360  0.16050280  0.89002360  1
  F  F3555  1  0.43350360  0.36050280  0.09002360  1
  F  F3556  1  0.43350360  0.36050280  0.29002360  1
  F  F3557  1  0.43350360  0.36050280  0.49002360  1
  F  F3558  1  0.43350360  0.36050280  0.69002360  1
  F  F3559  1  0.43350360  0.36050280  0.89002360  1
  F  F3560  1  0.43350360  0.56050280  0.09002360  1
  F  F3561  1  0.43350360  0.56050280  0.29002360  1
  F  F3562  1  0.43350360  0.56050280  0.49002360  1
  F  F3563  1  0.43350360  0.56050280  0.69002360  1
  F  F3564  1  0.43350360  0.56050280  0.89002360  1
  F  F3565  1  0.43350360  0.76050280  0.09002360  1
  F  F3566  1  0.43350360  0.76050280  0.29002360  1
  F  F3567  1  0.43350360  0.76050280  0.49002360  1
  F  F3568  1  0.43350360  0.76050280  0.69002360  1
  F  F3569  1  0.43350360  0.76050280  0.89002360  1
  F  F3570  1  0.43350360  0.96050280  0.09002360  1
  F  F3571  1  0.43350360  0.96050280  0.29002360  1
  F  F3572  1  0.43350360  0.96050280  0.49002360  1
  F  F3573  1  0.43350360  0.96050280  0.69002360  1
  F  F3574  1  0.43350360  0.96050280  0.89002360  1
  F  F3575  1  0.63350360  0.16050280  0.09002360  1
  F  F3576  1  0.63350360  0.16050280  0.29002360  1
  F  F3577  1  0.63350360  0.16050280  0.49002360  1
  F  F3578  1  0.63350360  0.16050280  0.69002360  1
  F  F3579  1  0.63350360  0.16050280  0.89002360  1
  F  F3580  1  0.63350360  0.36050280  0.09002360  1
  F  F3581  1  0.63350360  0.36050280  0.29002360  1
  F  F3582  1  0.63350360  0.36050280  0.49002360  1
  F  F3583  1  0.63350360  0.36050280  0.69002360  1
  F  F3584  1  0.63350360  0.36050280  0.89002360  1
  F  F3585  1  0.63350360  0.56050280  0.09002360  1
  F  F3586  1  0.63350360  0.56050280  0.29002360  1
  F  F3587  1  0.63350360  0.56050280  0.49002360  1
  F  F3588  1  0.63350360  0.56050280  0.69002360  1
  F  F3589  1  0.63350360  0.56050280  0.89002360  1
  F  F3590  1  0.63350360  0.76050280  0.09002360  1
  F  F3591  1  0.63350360  0.76050280  0.29002360  1
  F  F3592  1  0.63350360  0.76050280  0.49002360  1
  F  F3593  1  0.63350360  0.76050280  0.69002360  1
  F  F3594  1  0.63350360  0.76050280  0.89002360  1
  F  F3595  1  0.63350360  0.96050280  0.09002360  1
  F  F3596  1  0.63350360  0.96050280  0.29002360  1
  F  F3597  1  0.63350360  0.96050280  0.49002360  1
  F  F3598  1  0.63350360  0.96050280  0.69002360  1
  F  F3599  1  0.63350360  0.96050280  0.89002360  1
  F  F3600  1  0.83350360  0.16050280  0.09002360  1
  F  F3601  1  0.83350360  0.16050280  0.29002360  1
  F  F3602  1  0.83350360  0.16050280  0.49002360  1
  F  F3603  1  0.83350360  0.16050280  0.69002360  1
  F  F3604  1  0.83350360  0.16050280  0.89002360  1
  F  F3605  1  0.83350360  0.36050280  0.09002360  1
  F  F3606  1  0.83350360  0.36050280  0.29002360  1
  F  F3607  1  0.83350360  0.36050280  0.49002360  1
  F  F3608  1  0.83350360  0.36050280  0.69002360  1
  F  F3609  1  0.83350360  0.36050280  0.89002360  1
  F  F3610  1  0.83350360  0.56050280  0.09002360  1
  F  F3611  1  0.83350360  0.56050280  0.29002360  1
  F  F3612  1  0.83350360  0.56050280  0.49002360  1
  F  F3613  1  0.83350360  0.56050280  0.69002360  1
  F  F3614  1  0.83350360  0.56050280  0.89002360  1
  F  F3615  1  0.83350360  0.76050280  0.09002360  1
  F  F3616  1  0.83350360  0.76050280  0.29002360  1
  F  F3617  1  0.83350360  0.76050280  0.49002360  1
  F  F3618  1  0.83350360  0.76050280  0.69002360  1
  F  F3619  1  0.83350360  0.76050280  0.89002360  1
  F  F3620  1  0.83350360  0.96050280  0.09002360  1
  F  F3621  1  0.83350360  0.96050280  0.29002360  1
  F  F3622  1  0.83350360  0.96050280  0.49002360  1
  F  F3623  1  0.83350360  0.96050280  0.69002360  1
  F  F3624  1  0.83350360  0.96050280  0.89002360  1
  F  F3625  1  0.12739180  0.06862140  0.15506780  1
  F  F3626  1  0.12739180  0.06862140  0.35506780  1
  F  F3627  1  0.12739180  0.06862140  0.55506780  1
  F  F3628  1  0.12739180  0.06862140  0.75506780  1
  F  F3629  1  0.12739180  0.06862140  0.95506780  1
  F  F3630  1  0.12739180  0.26862140  0.15506780  1
  F  F3631  1  0.12739180  0.26862140  0.35506780  1
  F  F3632  1  0.12739180  0.26862140  0.55506780  1
  F  F3633  1  0.12739180  0.26862140  0.75506780  1
  F  F3634  1  0.12739180  0.26862140  0.95506780  1
  F  F3635  1  0.12739180  0.46862140  0.15506780  1
  F  F3636  1  0.12739180  0.46862140  0.35506780  1
  F  F3637  1  0.12739180  0.46862140  0.55506780  1
  F  F3638  1  0.12739180  0.46862140  0.75506780  1
  F  F3639  1  0.12739180  0.46862140  0.95506780  1
  F  F3640  1  0.12739180  0.66862140  0.15506780  1
  F  F3641  1  0.12739180  0.66862140  0.35506780  1
  F  F3642  1  0.12739180  0.66862140  0.55506780  1
  F  F3643  1  0.12739180  0.66862140  0.75506780  1
  F  F3644  1  0.12739180  0.66862140  0.95506780  1
  F  F3645  1  0.12739180  0.86862140  0.15506780  1
  F  F3646  1  0.12739180  0.86862140  0.35506780  1
  F  F3647  1  0.12739180  0.86862140  0.55506780  1
  F  F3648  1  0.12739180  0.86862140  0.75506780  1
  F  F3649  1  0.12739180  0.86862140  0.95506780  1
  F  F3650  1  0.32739180  0.06862140  0.15506780  1
  F  F3651  1  0.32739180  0.06862140  0.35506780  1
  F  F3652  1  0.32739180  0.06862140  0.55506780  1
  F  F3653  1  0.32739180  0.06862140  0.75506780  1
  F  F3654  1  0.32739180  0.06862140  0.95506780  1
  F  F3655  1  0.32739180  0.26862140  0.15506780  1
  F  F3656  1  0.32739180  0.26862140  0.35506780  1
  F  F3657  1  0.32739180  0.26862140  0.55506780  1
  F  F3658  1  0.32739180  0.26862140  0.75506780  1
  F  F3659  1  0.32739180  0.26862140  0.95506780  1
  F  F3660  1  0.32739180  0.46862140  0.15506780  1
  F  F3661  1  0.32739180  0.46862140  0.35506780  1
  F  F3662  1  0.32739180  0.46862140  0.55506780  1
  F  F3663  1  0.32739180  0.46862140  0.75506780  1
  F  F3664  1  0.32739180  0.46862140  0.95506780  1
  F  F3665  1  0.32739180  0.66862140  0.15506780  1
  F  F3666  1  0.32739180  0.66862140  0.35506780  1
  F  F3667  1  0.32739180  0.66862140  0.55506780  1
  F  F3668  1  0.32739180  0.66862140  0.75506780  1
  F  F3669  1  0.32739180  0.66862140  0.95506780  1
  F  F3670  1  0.32739180  0.86862140  0.15506780  1
  F  F3671  1  0.32739180  0.86862140  0.35506780  1
  F  F3672  1  0.32739180  0.86862140  0.55506780  1
  F  F3673  1  0.32739180  0.86862140  0.75506780  1
  F  F3674  1  0.32739180  0.86862140  0.95506780  1
  F  F3675  1  0.52739180  0.06862140  0.15506780  1
  F  F3676  1  0.52739180  0.06862140  0.35506780  1
  F  F3677  1  0.52739180  0.06862140  0.55506780  1
  F  F3678  1  0.52739180  0.06862140  0.75506780  1
  F  F3679  1  0.52739180  0.06862140  0.95506780  1
  F  F3680  1  0.52739180  0.26862140  0.15506780  1
  F  F3681  1  0.52739180  0.26862140  0.35506780  1
  F  F3682  1  0.52739180  0.26862140  0.55506780  1
  F  F3683  1  0.52739180  0.26862140  0.75506780  1
  F  F3684  1  0.52739180  0.26862140  0.95506780  1
  F  F3685  1  0.52739180  0.46862140  0.15506780  1
  F  F3686  1  0.52739180  0.46862140  0.35506780  1
  F  F3687  1  0.52739180  0.46862140  0.55506780  1
  F  F3688  1  0.52739180  0.46862140  0.75506780  1
  F  F3689  1  0.52739180  0.46862140  0.95506780  1
  F  F3690  1  0.52739180  0.66862140  0.15506780  1
  F  F3691  1  0.52739180  0.66862140  0.35506780  1
  F  F3692  1  0.52739180  0.66862140  0.55506780  1
  F  F3693  1  0.52739180  0.66862140  0.75506780  1
  F  F3694  1  0.52739180  0.66862140  0.95506780  1
  F  F3695  1  0.52739180  0.86862140  0.15506780  1
  F  F3696  1  0.52739180  0.86862140  0.35506780  1
  F  F3697  1  0.52739180  0.86862140  0.55506780  1
  F  F3698  1  0.52739180  0.86862140  0.75506780  1
  F  F3699  1  0.52739180  0.86862140  0.95506780  1
  F  F3700  1  0.72739180  0.06862140  0.15506780  1
  F  F3701  1  0.72739180  0.06862140  0.35506780  1
  F  F3702  1  0.72739180  0.06862140  0.55506780  1
  F  F3703  1  0.72739180  0.06862140  0.75506780  1
  F  F3704  1  0.72739180  0.06862140  0.95506780  1
  F  F3705  1  0.72739180  0.26862140  0.15506780  1
  F  F3706  1  0.72739180  0.26862140  0.35506780  1
  F  F3707  1  0.72739180  0.26862140  0.55506780  1
  F  F3708  1  0.72739180  0.26862140  0.75506780  1
  F  F3709  1  0.72739180  0.26862140  0.95506780  1
  F  F3710  1  0.72739180  0.46862140  0.15506780  1
  F  F3711  1  0.72739180  0.46862140  0.35506780  1
  F  F3712  1  0.72739180  0.46862140  0.55506780  1
  F  F3713  1  0.72739180  0.46862140  0.75506780  1
  F  F3714  1  0.72739180  0.46862140  0.95506780  1
  F  F3715  1  0.72739180  0.66862140  0.15506780  1
  F  F3716  1  0.72739180  0.66862140  0.35506780  1
  F  F3717  1  0.72739180  0.66862140  0.55506780  1
  F  F3718  1  0.72739180  0.66862140  0.75506780  1
  F  F3719  1  0.72739180  0.66862140  0.95506780  1
  F  F3720  1  0.72739180  0.86862140  0.15506780  1
  F  F3721  1  0.72739180  0.86862140  0.35506780  1
  F  F3722  1  0.72739180  0.86862140  0.55506780  1
  F  F3723  1  0.72739180  0.86862140  0.75506780  1
  F  F3724  1  0.72739180  0.86862140  0.95506780  1
  F  F3725  1  0.92739180  0.06862140  0.15506780  1
  F  F3726  1  0.92739180  0.06862140  0.35506780  1
  F  F3727  1  0.92739180  0.06862140  0.55506780  1
  F  F3728  1  0.92739180  0.06862140  0.75506780  1
  F  F3729  1  0.92739180  0.06862140  0.95506780  1
  F  F3730  1  0.92739180  0.26862140  0.15506780  1
  F  F3731  1  0.92739180  0.26862140  0.35506780  1
  F  F3732  1  0.92739180  0.26862140  0.55506780  1
  F  F3733  1  0.92739180  0.26862140  0.75506780  1
  F  F3734  1  0.92739180  0.26862140  0.95506780  1
  F  F3735  1  0.92739180  0.46862140  0.15506780  1
  F  F3736  1  0.92739180  0.46862140  0.35506780  1
  F  F3737  1  0.92739180  0.46862140  0.55506780  1
  F  F3738  1  0.92739180  0.46862140  0.75506780  1
  F  F3739  1  0.92739180  0.46862140  0.95506780  1
  F  F3740  1  0.92739180  0.66862140  0.15506780  1
  F  F3741  1  0.92739180  0.66862140  0.35506780  1
  F  F3742  1  0.92739180  0.66862140  0.55506780  1
  F  F3743  1  0.92739180  0.66862140  0.75506780  1
  F  F3744  1  0.92739180  0.66862140  0.95506780  1
  F  F3745  1  0.92739180  0.86862140  0.15506780  1
  F  F3746  1  0.92739180  0.86862140  0.35506780  1
  F  F3747  1  0.92739180  0.86862140  0.55506780  1
  F  F3748  1  0.92739180  0.86862140  0.75506780  1
  F  F3749  1  0.92739180  0.86862140  0.95506780  1
  F  F3750  1  0.14414720  0.16829520  0.08569200  1
  F  F3751  1  0.14414720  0.16829520  0.28569200  1
  F  F3752  1  0.14414720  0.16829520  0.48569200  1
  F  F3753  1  0.14414720  0.16829520  0.68569200  1
  F  F3754  1  0.14414720  0.16829520  0.88569200  1
  F  F3755  1  0.14414720  0.36829520  0.08569200  1
  F  F3756  1  0.14414720  0.36829520  0.28569200  1
  F  F3757  1  0.14414720  0.36829520  0.48569200  1
  F  F3758  1  0.14414720  0.36829520  0.68569200  1
  F  F3759  1  0.14414720  0.36829520  0.88569200  1
  F  F3760  1  0.14414720  0.56829520  0.08569200  1
  F  F3761  1  0.14414720  0.56829520  0.28569200  1
  F  F3762  1  0.14414720  0.56829520  0.48569200  1
  F  F3763  1  0.14414720  0.56829520  0.68569200  1
  F  F3764  1  0.14414720  0.56829520  0.88569200  1
  F  F3765  1  0.14414720  0.76829520  0.08569200  1
  F  F3766  1  0.14414720  0.76829520  0.28569200  1
  F  F3767  1  0.14414720  0.76829520  0.48569200  1
  F  F3768  1  0.14414720  0.76829520  0.68569200  1
  F  F3769  1  0.14414720  0.76829520  0.88569200  1
  F  F3770  1  0.14414720  0.96829520  0.08569200  1
  F  F3771  1  0.14414720  0.96829520  0.28569200  1
  F  F3772  1  0.14414720  0.96829520  0.48569200  1
  F  F3773  1  0.14414720  0.96829520  0.68569200  1
  F  F3774  1  0.14414720  0.96829520  0.88569200  1
  F  F3775  1  0.34414720  0.16829520  0.08569200  1
  F  F3776  1  0.34414720  0.16829520  0.28569200  1
  F  F3777  1  0.34414720  0.16829520  0.48569200  1
  F  F3778  1  0.34414720  0.16829520  0.68569200  1
  F  F3779  1  0.34414720  0.16829520  0.88569200  1
  F  F3780  1  0.34414720  0.36829520  0.08569200  1
  F  F3781  1  0.34414720  0.36829520  0.28569200  1
  F  F3782  1  0.34414720  0.36829520  0.48569200  1
  F  F3783  1  0.34414720  0.36829520  0.68569200  1
  F  F3784  1  0.34414720  0.36829520  0.88569200  1
  F  F3785  1  0.34414720  0.56829520  0.08569200  1
  F  F3786  1  0.34414720  0.56829520  0.28569200  1
  F  F3787  1  0.34414720  0.56829520  0.48569200  1
  F  F3788  1  0.34414720  0.56829520  0.68569200  1
  F  F3789  1  0.34414720  0.56829520  0.88569200  1
  F  F3790  1  0.34414720  0.76829520  0.08569200  1
  F  F3791  1  0.34414720  0.76829520  0.28569200  1
  F  F3792  1  0.34414720  0.76829520  0.48569200  1
  F  F3793  1  0.34414720  0.76829520  0.68569200  1
  F  F3794  1  0.34414720  0.76829520  0.88569200  1
  F  F3795  1  0.34414720  0.96829520  0.08569200  1
  F  F3796  1  0.34414720  0.96829520  0.28569200  1
  F  F3797  1  0.34414720  0.96829520  0.48569200  1
  F  F3798  1  0.34414720  0.96829520  0.68569200  1
  F  F3799  1  0.34414720  0.96829520  0.88569200  1
  F  F3800  1  0.54414720  0.16829520  0.08569200  1
  F  F3801  1  0.54414720  0.16829520  0.28569200  1
  F  F3802  1  0.54414720  0.16829520  0.48569200  1
  F  F3803  1  0.54414720  0.16829520  0.68569200  1
  F  F3804  1  0.54414720  0.16829520  0.88569200  1
  F  F3805  1  0.54414720  0.36829520  0.08569200  1
  F  F3806  1  0.54414720  0.36829520  0.28569200  1
  F  F3807  1  0.54414720  0.36829520  0.48569200  1
  F  F3808  1  0.54414720  0.36829520  0.68569200  1
  F  F3809  1  0.54414720  0.36829520  0.88569200  1
  F  F3810  1  0.54414720  0.56829520  0.08569200  1
  F  F3811  1  0.54414720  0.56829520  0.28569200  1
  F  F3812  1  0.54414720  0.56829520  0.48569200  1
  F  F3813  1  0.54414720  0.56829520  0.68569200  1
  F  F3814  1  0.54414720  0.56829520  0.88569200  1
  F  F3815  1  0.54414720  0.76829520  0.08569200  1
  F  F3816  1  0.54414720  0.76829520  0.28569200  1
  F  F3817  1  0.54414720  0.76829520  0.48569200  1
  F  F3818  1  0.54414720  0.76829520  0.68569200  1
  F  F3819  1  0.54414720  0.76829520  0.88569200  1
  F  F3820  1  0.54414720  0.96829520  0.08569200  1
  F  F3821  1  0.54414720  0.96829520  0.28569200  1
  F  F3822  1  0.54414720  0.96829520  0.48569200  1
  F  F3823  1  0.54414720  0.96829520  0.68569200  1
  F  F3824  1  0.54414720  0.96829520  0.88569200  1
  F  F3825  1  0.74414720  0.16829520  0.08569200  1
  F  F3826  1  0.74414720  0.16829520  0.28569200  1
  F  F3827  1  0.74414720  0.16829520  0.48569200  1
  F  F3828  1  0.74414720  0.16829520  0.68569200  1
  F  F3829  1  0.74414720  0.16829520  0.88569200  1
  F  F3830  1  0.74414720  0.36829520  0.08569200  1
  F  F3831  1  0.74414720  0.36829520  0.28569200  1
  F  F3832  1  0.74414720  0.36829520  0.48569200  1
  F  F3833  1  0.74414720  0.36829520  0.68569200  1
  F  F3834  1  0.74414720  0.36829520  0.88569200  1
  F  F3835  1  0.74414720  0.56829520  0.08569200  1
  F  F3836  1  0.74414720  0.56829520  0.28569200  1
  F  F3837  1  0.74414720  0.56829520  0.48569200  1
  F  F3838  1  0.74414720  0.56829520  0.68569200  1
  F  F3839  1  0.74414720  0.56829520  0.88569200  1
  F  F3840  1  0.74414720  0.76829520  0.08569200  1
  F  F3841  1  0.74414720  0.76829520  0.28569200  1
  F  F3842  1  0.74414720  0.76829520  0.48569200  1
  F  F3843  1  0.74414720  0.76829520  0.68569200  1
  F  F3844  1  0.74414720  0.76829520  0.88569200  1
  F  F3845  1  0.74414720  0.96829520  0.08569200  1
  F  F3846  1  0.74414720  0.96829520  0.28569200  1
  F  F3847  1  0.74414720  0.96829520  0.48569200  1
  F  F3848  1  0.74414720  0.96829520  0.68569200  1
  F  F3849  1  0.74414720  0.96829520  0.88569200  1
  F  F3850  1  0.94414720  0.16829520  0.08569200  1
  F  F3851  1  0.94414720  0.16829520  0.28569200  1
  F  F3852  1  0.94414720  0.16829520  0.48569200  1
  F  F3853  1  0.94414720  0.16829520  0.68569200  1
  F  F3854  1  0.94414720  0.16829520  0.88569200  1
  F  F3855  1  0.94414720  0.36829520  0.08569200  1
  F  F3856  1  0.94414720  0.36829520  0.28569200  1
  F  F3857  1  0.94414720  0.36829520  0.48569200  1
  F  F3858  1  0.94414720  0.36829520  0.68569200  1
  F  F3859  1  0.94414720  0.36829520  0.88569200  1
  F  F3860  1  0.94414720  0.56829520  0.08569200  1
  F  F3861  1  0.94414720  0.56829520  0.28569200  1
  F  F3862  1  0.94414720  0.56829520  0.48569200  1
  F  F3863  1  0.94414720  0.56829520  0.68569200  1
  F  F3864  1  0.94414720  0.56829520  0.88569200  1
  F  F3865  1  0.94414720  0.76829520  0.08569200  1
  F  F3866  1  0.94414720  0.76829520  0.28569200  1
  F  F3867  1  0.94414720  0.76829520  0.48569200  1
  F  F3868  1  0.94414720  0.76829520  0.68569200  1
  F  F3869  1  0.94414720  0.76829520  0.88569200  1
  F  F3870  1  0.94414720  0.96829520  0.08569200  1
  F  F3871  1  0.94414720  0.96829520  0.28569200  1
  F  F3872  1  0.94414720  0.96829520  0.48569200  1
  F  F3873  1  0.94414720  0.96829520  0.68569200  1
  F  F3874  1  0.94414720  0.96829520  0.88569200  1
  F  F3875  1  0.07300080  0.03949720  0.04330960  1
  F  F3876  1  0.07300080  0.03949720  0.24330960  1
  F  F3877  1  0.07300080  0.03949720  0.44330960  1
  F  F3878  1  0.07300080  0.03949720  0.64330960  1
  F  F3879  1  0.07300080  0.03949720  0.84330960  1
  F  F3880  1  0.07300080  0.23949720  0.04330960  1
  F  F3881  1  0.07300080  0.23949720  0.24330960  1
  F  F3882  1  0.07300080  0.23949720  0.44330960  1
  F  F3883  1  0.07300080  0.23949720  0.64330960  1
  F  F3884  1  0.07300080  0.23949720  0.84330960  1
  F  F3885  1  0.07300080  0.43949720  0.04330960  1
  F  F3886  1  0.07300080  0.43949720  0.24330960  1
  F  F3887  1  0.07300080  0.43949720  0.44330960  1
  F  F3888  1  0.07300080  0.43949720  0.64330960  1
  F  F3889  1  0.07300080  0.43949720  0.84330960  1
  F  F3890  1  0.07300080  0.63949720  0.04330960  1
  F  F3891  1  0.07300080  0.63949720  0.24330960  1
  F  F3892  1  0.07300080  0.63949720  0.44330960  1
  F  F3893  1  0.07300080  0.63949720  0.64330960  1
  F  F3894  1  0.07300080  0.63949720  0.84330960  1
  F  F3895  1  0.07300080  0.83949720  0.04330960  1
  F  F3896  1  0.07300080  0.83949720  0.24330960  1
  F  F3897  1  0.07300080  0.83949720  0.44330960  1
  F  F3898  1  0.07300080  0.83949720  0.64330960  1
  F  F3899  1  0.07300080  0.83949720  0.84330960  1
  F  F3900  1  0.27300080  0.03949720  0.04330960  1
  F  F3901  1  0.27300080  0.03949720  0.24330960  1
  F  F3902  1  0.27300080  0.03949720  0.44330960  1
  F  F3903  1  0.27300080  0.03949720  0.64330960  1
  F  F3904  1  0.27300080  0.03949720  0.84330960  1
  F  F3905  1  0.27300080  0.23949720  0.04330960  1
  F  F3906  1  0.27300080  0.23949720  0.24330960  1
  F  F3907  1  0.27300080  0.23949720  0.44330960  1
  F  F3908  1  0.27300080  0.23949720  0.64330960  1
  F  F3909  1  0.27300080  0.23949720  0.84330960  1
  F  F3910  1  0.27300080  0.43949720  0.04330960  1
  F  F3911  1  0.27300080  0.43949720  0.24330960  1
  F  F3912  1  0.27300080  0.43949720  0.44330960  1
  F  F3913  1  0.27300080  0.43949720  0.64330960  1
  F  F3914  1  0.27300080  0.43949720  0.84330960  1
  F  F3915  1  0.27300080  0.63949720  0.04330960  1
  F  F3916  1  0.27300080  0.63949720  0.24330960  1
  F  F3917  1  0.27300080  0.63949720  0.44330960  1
  F  F3918  1  0.27300080  0.63949720  0.64330960  1
  F  F3919  1  0.27300080  0.63949720  0.84330960  1
  F  F3920  1  0.27300080  0.83949720  0.04330960  1
  F  F3921  1  0.27300080  0.83949720  0.24330960  1
  F  F3922  1  0.27300080  0.83949720  0.44330960  1
  F  F3923  1  0.27300080  0.83949720  0.64330960  1
  F  F3924  1  0.27300080  0.83949720  0.84330960  1
  F  F3925  1  0.47300080  0.03949720  0.04330960  1
  F  F3926  1  0.47300080  0.03949720  0.24330960  1
  F  F3927  1  0.47300080  0.03949720  0.44330960  1
  F  F3928  1  0.47300080  0.03949720  0.64330960  1
  F  F3929  1  0.47300080  0.03949720  0.84330960  1
  F  F3930  1  0.47300080  0.23949720  0.04330960  1
  F  F3931  1  0.47300080  0.23949720  0.24330960  1
  F  F3932  1  0.47300080  0.23949720  0.44330960  1
  F  F3933  1  0.47300080  0.23949720  0.64330960  1
  F  F3934  1  0.47300080  0.23949720  0.84330960  1
  F  F3935  1  0.47300080  0.43949720  0.04330960  1
  F  F3936  1  0.47300080  0.43949720  0.24330960  1
  F  F3937  1  0.47300080  0.43949720  0.44330960  1
  F  F3938  1  0.47300080  0.43949720  0.64330960  1
  F  F3939  1  0.47300080  0.43949720  0.84330960  1
  F  F3940  1  0.47300080  0.63949720  0.04330960  1
  F  F3941  1  0.47300080  0.63949720  0.24330960  1
  F  F3942  1  0.47300080  0.63949720  0.44330960  1
  F  F3943  1  0.47300080  0.63949720  0.64330960  1
  F  F3944  1  0.47300080  0.63949720  0.84330960  1
  F  F3945  1  0.47300080  0.83949720  0.04330960  1
  F  F3946  1  0.47300080  0.83949720  0.24330960  1
  F  F3947  1  0.47300080  0.83949720  0.44330960  1
  F  F3948  1  0.47300080  0.83949720  0.64330960  1
  F  F3949  1  0.47300080  0.83949720  0.84330960  1
  F  F3950  1  0.67300080  0.03949720  0.04330960  1
  F  F3951  1  0.67300080  0.03949720  0.24330960  1
  F  F3952  1  0.67300080  0.03949720  0.44330960  1
  F  F3953  1  0.67300080  0.03949720  0.64330960  1
  F  F3954  1  0.67300080  0.03949720  0.84330960  1
  F  F3955  1  0.67300080  0.23949720  0.04330960  1
  F  F3956  1  0.67300080  0.23949720  0.24330960  1
  F  F3957  1  0.67300080  0.23949720  0.44330960  1
  F  F3958  1  0.67300080  0.23949720  0.64330960  1
  F  F3959  1  0.67300080  0.23949720  0.84330960  1
  F  F3960  1  0.67300080  0.43949720  0.04330960  1
  F  F3961  1  0.67300080  0.43949720  0.24330960  1
  F  F3962  1  0.67300080  0.43949720  0.44330960  1
  F  F3963  1  0.67300080  0.43949720  0.64330960  1
  F  F3964  1  0.67300080  0.43949720  0.84330960  1
  F  F3965  1  0.67300080  0.63949720  0.04330960  1
  F  F3966  1  0.67300080  0.63949720  0.24330960  1
  F  F3967  1  0.67300080  0.63949720  0.44330960  1
  F  F3968  1  0.67300080  0.63949720  0.64330960  1
  F  F3969  1  0.67300080  0.63949720  0.84330960  1
  F  F3970  1  0.67300080  0.83949720  0.04330960  1
  F  F3971  1  0.67300080  0.83949720  0.24330960  1
  F  F3972  1  0.67300080  0.83949720  0.44330960  1
  F  F3973  1  0.67300080  0.83949720  0.64330960  1
  F  F3974  1  0.67300080  0.83949720  0.84330960  1
  F  F3975  1  0.87300080  0.03949720  0.04330960  1
  F  F3976  1  0.87300080  0.03949720  0.24330960  1
  F  F3977  1  0.87300080  0.03949720  0.44330960  1
  F  F3978  1  0.87300080  0.03949720  0.64330960  1
  F  F3979  1  0.87300080  0.03949720  0.84330960  1
  F  F3980  1  0.87300080  0.23949720  0.04330960  1
  F  F3981  1  0.87300080  0.23949720  0.24330960  1
  F  F3982  1  0.87300080  0.23949720  0.44330960  1
  F  F3983  1  0.87300080  0.23949720  0.64330960  1
  F  F3984  1  0.87300080  0.23949720  0.84330960  1
  F  F3985  1  0.87300080  0.43949720  0.04330960  1
  F  F3986  1  0.87300080  0.43949720  0.24330960  1
  F  F3987  1  0.87300080  0.43949720  0.44330960  1
  F  F3988  1  0.87300080  0.43949720  0.64330960  1
  F  F3989  1  0.87300080  0.43949720  0.84330960  1
  F  F3990  1  0.87300080  0.63949720  0.04330960  1
  F  F3991  1  0.87300080  0.63949720  0.24330960  1
  F  F3992  1  0.87300080  0.63949720  0.44330960  1
  F  F3993  1  0.87300080  0.63949720  0.64330960  1
  F  F3994  1  0.87300080  0.63949720  0.84330960  1
  F  F3995  1  0.87300080  0.83949720  0.04330960  1
  F  F3996  1  0.87300080  0.83949720  0.24330960  1
  F  F3997  1  0.87300080  0.83949720  0.44330960  1
  F  F3998  1  0.87300080  0.83949720  0.64330960  1
  F  F3999  1  0.87300080  0.83949720  0.84330960  1
  F  F4000  1  0.02414780  0.05585280  0.01902520  1
  F  F4001  1  0.02414780  0.05585280  0.21902520  1
  F  F4002  1  0.02414780  0.05585280  0.41902520  1
  F  F4003  1  0.02414780  0.05585280  0.61902520  1
  F  F4004  1  0.02414780  0.05585280  0.81902520  1
  F  F4005  1  0.02414780  0.25585280  0.01902520  1
  F  F4006  1  0.02414780  0.25585280  0.21902520  1
  F  F4007  1  0.02414780  0.25585280  0.41902520  1
  F  F4008  1  0.02414780  0.25585280  0.61902520  1
  F  F4009  1  0.02414780  0.25585280  0.81902520  1
  F  F4010  1  0.02414780  0.45585280  0.01902520  1
  F  F4011  1  0.02414780  0.45585280  0.21902520  1
  F  F4012  1  0.02414780  0.45585280  0.41902520  1
  F  F4013  1  0.02414780  0.45585280  0.61902520  1
  F  F4014  1  0.02414780  0.45585280  0.81902520  1
  F  F4015  1  0.02414780  0.65585280  0.01902520  1
  F  F4016  1  0.02414780  0.65585280  0.21902520  1
  F  F4017  1  0.02414780  0.65585280  0.41902520  1
  F  F4018  1  0.02414780  0.65585280  0.61902520  1
  F  F4019  1  0.02414780  0.65585280  0.81902520  1
  F  F4020  1  0.02414780  0.85585280  0.01902520  1
  F  F4021  1  0.02414780  0.85585280  0.21902520  1
  F  F4022  1  0.02414780  0.85585280  0.41902520  1
  F  F4023  1  0.02414780  0.85585280  0.61902520  1
  F  F4024  1  0.02414780  0.85585280  0.81902520  1
  F  F4025  1  0.22414780  0.05585280  0.01902520  1
  F  F4026  1  0.22414780  0.05585280  0.21902520  1
  F  F4027  1  0.22414780  0.05585280  0.41902520  1
  F  F4028  1  0.22414780  0.05585280  0.61902520  1
  F  F4029  1  0.22414780  0.05585280  0.81902520  1
  F  F4030  1  0.22414780  0.25585280  0.01902520  1
  F  F4031  1  0.22414780  0.25585280  0.21902520  1
  F  F4032  1  0.22414780  0.25585280  0.41902520  1
  F  F4033  1  0.22414780  0.25585280  0.61902520  1
  F  F4034  1  0.22414780  0.25585280  0.81902520  1
  F  F4035  1  0.22414780  0.45585280  0.01902520  1
  F  F4036  1  0.22414780  0.45585280  0.21902520  1
  F  F4037  1  0.22414780  0.45585280  0.41902520  1
  F  F4038  1  0.22414780  0.45585280  0.61902520  1
  F  F4039  1  0.22414780  0.45585280  0.81902520  1
  F  F4040  1  0.22414780  0.65585280  0.01902520  1
  F  F4041  1  0.22414780  0.65585280  0.21902520  1
  F  F4042  1  0.22414780  0.65585280  0.41902520  1
  F  F4043  1  0.22414780  0.65585280  0.61902520  1
  F  F4044  1  0.22414780  0.65585280  0.81902520  1
  F  F4045  1  0.22414780  0.85585280  0.01902520  1
  F  F4046  1  0.22414780  0.85585280  0.21902520  1
  F  F4047  1  0.22414780  0.85585280  0.41902520  1
  F  F4048  1  0.22414780  0.85585280  0.61902520  1
  F  F4049  1  0.22414780  0.85585280  0.81902520  1
  F  F4050  1  0.42414780  0.05585280  0.01902520  1
  F  F4051  1  0.42414780  0.05585280  0.21902520  1
  F  F4052  1  0.42414780  0.05585280  0.41902520  1
  F  F4053  1  0.42414780  0.05585280  0.61902520  1
  F  F4054  1  0.42414780  0.05585280  0.81902520  1
  F  F4055  1  0.42414780  0.25585280  0.01902520  1
  F  F4056  1  0.42414780  0.25585280  0.21902520  1
  F  F4057  1  0.42414780  0.25585280  0.41902520  1
  F  F4058  1  0.42414780  0.25585280  0.61902520  1
  F  F4059  1  0.42414780  0.25585280  0.81902520  1
  F  F4060  1  0.42414780  0.45585280  0.01902520  1
  F  F4061  1  0.42414780  0.45585280  0.21902520  1
  F  F4062  1  0.42414780  0.45585280  0.41902520  1
  F  F4063  1  0.42414780  0.45585280  0.61902520  1
  F  F4064  1  0.42414780  0.45585280  0.81902520  1
  F  F4065  1  0.42414780  0.65585280  0.01902520  1
  F  F4066  1  0.42414780  0.65585280  0.21902520  1
  F  F4067  1  0.42414780  0.65585280  0.41902520  1
  F  F4068  1  0.42414780  0.65585280  0.61902520  1
  F  F4069  1  0.42414780  0.65585280  0.81902520  1
  F  F4070  1  0.42414780  0.85585280  0.01902520  1
  F  F4071  1  0.42414780  0.85585280  0.21902520  1
  F  F4072  1  0.42414780  0.85585280  0.41902520  1
  F  F4073  1  0.42414780  0.85585280  0.61902520  1
  F  F4074  1  0.42414780  0.85585280  0.81902520  1
  F  F4075  1  0.62414780  0.05585280  0.01902520  1
  F  F4076  1  0.62414780  0.05585280  0.21902520  1
  F  F4077  1  0.62414780  0.05585280  0.41902520  1
  F  F4078  1  0.62414780  0.05585280  0.61902520  1
  F  F4079  1  0.62414780  0.05585280  0.81902520  1
  F  F4080  1  0.62414780  0.25585280  0.01902520  1
  F  F4081  1  0.62414780  0.25585280  0.21902520  1
  F  F4082  1  0.62414780  0.25585280  0.41902520  1
  F  F4083  1  0.62414780  0.25585280  0.61902520  1
  F  F4084  1  0.62414780  0.25585280  0.81902520  1
  F  F4085  1  0.62414780  0.45585280  0.01902520  1
  F  F4086  1  0.62414780  0.45585280  0.21902520  1
  F  F4087  1  0.62414780  0.45585280  0.41902520  1
  F  F4088  1  0.62414780  0.45585280  0.61902520  1
  F  F4089  1  0.62414780  0.45585280  0.81902520  1
  F  F4090  1  0.62414780  0.65585280  0.01902520  1
  F  F4091  1  0.62414780  0.65585280  0.21902520  1
  F  F4092  1  0.62414780  0.65585280  0.41902520  1
  F  F4093  1  0.62414780  0.65585280  0.61902520  1
  F  F4094  1  0.62414780  0.65585280  0.81902520  1
  F  F4095  1  0.62414780  0.85585280  0.01902520  1
  F  F4096  1  0.62414780  0.85585280  0.21902520  1
  F  F4097  1  0.62414780  0.85585280  0.41902520  1
  F  F4098  1  0.62414780  0.85585280  0.61902520  1
  F  F4099  1  0.62414780  0.85585280  0.81902520  1
  F  F4100  1  0.82414780  0.05585280  0.01902520  1
  F  F4101  1  0.82414780  0.05585280  0.21902520  1
  F  F4102  1  0.82414780  0.05585280  0.41902520  1
  F  F4103  1  0.82414780  0.05585280  0.61902520  1
  F  F4104  1  0.82414780  0.05585280  0.81902520  1
  F  F4105  1  0.82414780  0.25585280  0.01902520  1
  F  F4106  1  0.82414780  0.25585280  0.21902520  1
  F  F4107  1  0.82414780  0.25585280  0.41902520  1
  F  F4108  1  0.82414780  0.25585280  0.61902520  1
  F  F4109  1  0.82414780  0.25585280  0.81902520  1
  F  F4110  1  0.82414780  0.45585280  0.01902520  1
  F  F4111  1  0.82414780  0.45585280  0.21902520  1
  F  F4112  1  0.82414780  0.45585280  0.41902520  1
  F  F4113  1  0.82414780  0.45585280  0.61902520  1
  F  F4114  1  0.82414780  0.45585280  0.81902520  1
  F  F4115  1  0.82414780  0.65585280  0.01902520  1
  F  F4116  1  0.82414780  0.65585280  0.21902520  1
  F  F4117  1  0.82414780  0.65585280  0.41902520  1
  F  F4118  1  0.82414780  0.65585280  0.61902520  1
  F  F4119  1  0.82414780  0.65585280  0.81902520  1
  F  F4120  1  0.82414780  0.85585280  0.01902520  1
  F  F4121  1  0.82414780  0.85585280  0.21902520  1
  F  F4122  1  0.82414780  0.85585280  0.41902520  1
  F  F4123  1  0.82414780  0.85585280  0.61902520  1
  F  F4124  1  0.82414780  0.85585280  0.81902520  1
  F  F4125  1  0.17585220  0.03170480  0.04764140  1
  F  F4126  1  0.17585220  0.03170480  0.24764140  1
  F  F4127  1  0.17585220  0.03170480  0.44764140  1
  F  F4128  1  0.17585220  0.03170480  0.64764140  1
  F  F4129  1  0.17585220  0.03170480  0.84764140  1
  F  F4130  1  0.17585220  0.23170480  0.04764140  1
  F  F4131  1  0.17585220  0.23170480  0.24764140  1
  F  F4132  1  0.17585220  0.23170480  0.44764140  1
  F  F4133  1  0.17585220  0.23170480  0.64764140  1
  F  F4134  1  0.17585220  0.23170480  0.84764140  1
  F  F4135  1  0.17585220  0.43170480  0.04764140  1
  F  F4136  1  0.17585220  0.43170480  0.24764140  1
  F  F4137  1  0.17585220  0.43170480  0.44764140  1
  F  F4138  1  0.17585220  0.43170480  0.64764140  1
  F  F4139  1  0.17585220  0.43170480  0.84764140  1
  F  F4140  1  0.17585220  0.63170480  0.04764140  1
  F  F4141  1  0.17585220  0.63170480  0.24764140  1
  F  F4142  1  0.17585220  0.63170480  0.44764140  1
  F  F4143  1  0.17585220  0.63170480  0.64764140  1
  F  F4144  1  0.17585220  0.63170480  0.84764140  1
  F  F4145  1  0.17585220  0.83170480  0.04764140  1
  F  F4146  1  0.17585220  0.83170480  0.24764140  1
  F  F4147  1  0.17585220  0.83170480  0.44764140  1
  F  F4148  1  0.17585220  0.83170480  0.64764140  1
  F  F4149  1  0.17585220  0.83170480  0.84764140  1
  F  F4150  1  0.37585220  0.03170480  0.04764140  1
  F  F4151  1  0.37585220  0.03170480  0.24764140  1
  F  F4152  1  0.37585220  0.03170480  0.44764140  1
  F  F4153  1  0.37585220  0.03170480  0.64764140  1
  F  F4154  1  0.37585220  0.03170480  0.84764140  1
  F  F4155  1  0.37585220  0.23170480  0.04764140  1
  F  F4156  1  0.37585220  0.23170480  0.24764140  1
  F  F4157  1  0.37585220  0.23170480  0.44764140  1
  F  F4158  1  0.37585220  0.23170480  0.64764140  1
  F  F4159  1  0.37585220  0.23170480  0.84764140  1
  F  F4160  1  0.37585220  0.43170480  0.04764140  1
  F  F4161  1  0.37585220  0.43170480  0.24764140  1
  F  F4162  1  0.37585220  0.43170480  0.44764140  1
  F  F4163  1  0.37585220  0.43170480  0.64764140  1
  F  F4164  1  0.37585220  0.43170480  0.84764140  1
  F  F4165  1  0.37585220  0.63170480  0.04764140  1
  F  F4166  1  0.37585220  0.63170480  0.24764140  1
  F  F4167  1  0.37585220  0.63170480  0.44764140  1
  F  F4168  1  0.37585220  0.63170480  0.64764140  1
  F  F4169  1  0.37585220  0.63170480  0.84764140  1
  F  F4170  1  0.37585220  0.83170480  0.04764140  1
  F  F4171  1  0.37585220  0.83170480  0.24764140  1
  F  F4172  1  0.37585220  0.83170480  0.44764140  1
  F  F4173  1  0.37585220  0.83170480  0.64764140  1
  F  F4174  1  0.37585220  0.83170480  0.84764140  1
  F  F4175  1  0.57585220  0.03170480  0.04764140  1
  F  F4176  1  0.57585220  0.03170480  0.24764140  1
  F  F4177  1  0.57585220  0.03170480  0.44764140  1
  F  F4178  1  0.57585220  0.03170480  0.64764140  1
  F  F4179  1  0.57585220  0.03170480  0.84764140  1
  F  F4180  1  0.57585220  0.23170480  0.04764140  1
  F  F4181  1  0.57585220  0.23170480  0.24764140  1
  F  F4182  1  0.57585220  0.23170480  0.44764140  1
  F  F4183  1  0.57585220  0.23170480  0.64764140  1
  F  F4184  1  0.57585220  0.23170480  0.84764140  1
  F  F4185  1  0.57585220  0.43170480  0.04764140  1
  F  F4186  1  0.57585220  0.43170480  0.24764140  1
  F  F4187  1  0.57585220  0.43170480  0.44764140  1
  F  F4188  1  0.57585220  0.43170480  0.64764140  1
  F  F4189  1  0.57585220  0.43170480  0.84764140  1
  F  F4190  1  0.57585220  0.63170480  0.04764140  1
  F  F4191  1  0.57585220  0.63170480  0.24764140  1
  F  F4192  1  0.57585220  0.63170480  0.44764140  1
  F  F4193  1  0.57585220  0.63170480  0.64764140  1
  F  F4194  1  0.57585220  0.63170480  0.84764140  1
  F  F4195  1  0.57585220  0.83170480  0.04764140  1
  F  F4196  1  0.57585220  0.83170480  0.24764140  1
  F  F4197  1  0.57585220  0.83170480  0.44764140  1
  F  F4198  1  0.57585220  0.83170480  0.64764140  1
  F  F4199  1  0.57585220  0.83170480  0.84764140  1
  F  F4200  1  0.77585220  0.03170480  0.04764140  1
  F  F4201  1  0.77585220  0.03170480  0.24764140  1
  F  F4202  1  0.77585220  0.03170480  0.44764140  1
  F  F4203  1  0.77585220  0.03170480  0.64764140  1
  F  F4204  1  0.77585220  0.03170480  0.84764140  1
  F  F4205  1  0.77585220  0.23170480  0.04764140  1
  F  F4206  1  0.77585220  0.23170480  0.24764140  1
  F  F4207  1  0.77585220  0.23170480  0.44764140  1
  F  F4208  1  0.77585220  0.23170480  0.64764140  1
  F  F4209  1  0.77585220  0.23170480  0.84764140  1
  F  F4210  1  0.77585220  0.43170480  0.04764140  1
  F  F4211  1  0.77585220  0.43170480  0.24764140  1
  F  F4212  1  0.77585220  0.43170480  0.44764140  1
  F  F4213  1  0.77585220  0.43170480  0.64764140  1
  F  F4214  1  0.77585220  0.43170480  0.84764140  1
  F  F4215  1  0.77585220  0.63170480  0.04764140  1
  F  F4216  1  0.77585220  0.63170480  0.24764140  1
  F  F4217  1  0.77585220  0.63170480  0.44764140  1
  F  F4218  1  0.77585220  0.63170480  0.64764140  1
  F  F4219  1  0.77585220  0.63170480  0.84764140  1
  F  F4220  1  0.77585220  0.83170480  0.04764140  1
  F  F4221  1  0.77585220  0.83170480  0.24764140  1
  F  F4222  1  0.77585220  0.83170480  0.44764140  1
  F  F4223  1  0.77585220  0.83170480  0.64764140  1
  F  F4224  1  0.77585220  0.83170480  0.84764140  1
  F  F4225  1  0.97585220  0.03170480  0.04764140  1
  F  F4226  1  0.97585220  0.03170480  0.24764140  1
  F  F4227  1  0.97585220  0.03170480  0.44764140  1
  F  F4228  1  0.97585220  0.03170480  0.64764140  1
  F  F4229  1  0.97585220  0.03170480  0.84764140  1
  F  F4230  1  0.97585220  0.23170480  0.04764140  1
  F  F4231  1  0.97585220  0.23170480  0.24764140  1
  F  F4232  1  0.97585220  0.23170480  0.44764140  1
  F  F4233  1  0.97585220  0.23170480  0.64764140  1
  F  F4234  1  0.97585220  0.23170480  0.84764140  1
  F  F4235  1  0.97585220  0.43170480  0.04764140  1
  F  F4236  1  0.97585220  0.43170480  0.24764140  1
  F  F4237  1  0.97585220  0.43170480  0.44764140  1
  F  F4238  1  0.97585220  0.43170480  0.64764140  1
  F  F4239  1  0.97585220  0.43170480  0.84764140  1
  F  F4240  1  0.97585220  0.63170480  0.04764140  1
  F  F4241  1  0.97585220  0.63170480  0.24764140  1
  F  F4242  1  0.97585220  0.63170480  0.44764140  1
  F  F4243  1  0.97585220  0.63170480  0.64764140  1
  F  F4244  1  0.97585220  0.63170480  0.84764140  1
  F  F4245  1  0.97585220  0.83170480  0.04764140  1
  F  F4246  1  0.97585220  0.83170480  0.24764140  1
  F  F4247  1  0.97585220  0.83170480  0.44764140  1
  F  F4248  1  0.97585220  0.83170480  0.64764140  1
  F  F4249  1  0.97585220  0.83170480  0.84764140  1
  F  F4250  1  0.06862140  0.12739180  0.04493220  1
  F  F4251  1  0.06862140  0.12739180  0.24493220  1
  F  F4252  1  0.06862140  0.12739180  0.44493220  1
  F  F4253  1  0.06862140  0.12739180  0.64493220  1
  F  F4254  1  0.06862140  0.12739180  0.84493220  1
  F  F4255  1  0.06862140  0.32739180  0.04493220  1
  F  F4256  1  0.06862140  0.32739180  0.24493220  1
  F  F4257  1  0.06862140  0.32739180  0.44493220  1
  F  F4258  1  0.06862140  0.32739180  0.64493220  1
  F  F4259  1  0.06862140  0.32739180  0.84493220  1
  F  F4260  1  0.06862140  0.52739180  0.04493220  1
  F  F4261  1  0.06862140  0.52739180  0.24493220  1
  F  F4262  1  0.06862140  0.52739180  0.44493220  1
  F  F4263  1  0.06862140  0.52739180  0.64493220  1
  F  F4264  1  0.06862140  0.52739180  0.84493220  1
  F  F4265  1  0.06862140  0.72739180  0.04493220  1
  F  F4266  1  0.06862140  0.72739180  0.24493220  1
  F  F4267  1  0.06862140  0.72739180  0.44493220  1
  F  F4268  1  0.06862140  0.72739180  0.64493220  1
  F  F4269  1  0.06862140  0.72739180  0.84493220  1
  F  F4270  1  0.06862140  0.92739180  0.04493220  1
  F  F4271  1  0.06862140  0.92739180  0.24493220  1
  F  F4272  1  0.06862140  0.92739180  0.44493220  1
  F  F4273  1  0.06862140  0.92739180  0.64493220  1
  F  F4274  1  0.06862140  0.92739180  0.84493220  1
  F  F4275  1  0.26862140  0.12739180  0.04493220  1
  F  F4276  1  0.26862140  0.12739180  0.24493220  1
  F  F4277  1  0.26862140  0.12739180  0.44493220  1
  F  F4278  1  0.26862140  0.12739180  0.64493220  1
  F  F4279  1  0.26862140  0.12739180  0.84493220  1
  F  F4280  1  0.26862140  0.32739180  0.04493220  1
  F  F4281  1  0.26862140  0.32739180  0.24493220  1
  F  F4282  1  0.26862140  0.32739180  0.44493220  1
  F  F4283  1  0.26862140  0.32739180  0.64493220  1
  F  F4284  1  0.26862140  0.32739180  0.84493220  1
  F  F4285  1  0.26862140  0.52739180  0.04493220  1
  F  F4286  1  0.26862140  0.52739180  0.24493220  1
  F  F4287  1  0.26862140  0.52739180  0.44493220  1
  F  F4288  1  0.26862140  0.52739180  0.64493220  1
  F  F4289  1  0.26862140  0.52739180  0.84493220  1
  F  F4290  1  0.26862140  0.72739180  0.04493220  1
  F  F4291  1  0.26862140  0.72739180  0.24493220  1
  F  F4292  1  0.26862140  0.72739180  0.44493220  1
  F  F4293  1  0.26862140  0.72739180  0.64493220  1
  F  F4294  1  0.26862140  0.72739180  0.84493220  1
  F  F4295  1  0.26862140  0.92739180  0.04493220  1
  F  F4296  1  0.26862140  0.92739180  0.24493220  1
  F  F4297  1  0.26862140  0.92739180  0.44493220  1
  F  F4298  1  0.26862140  0.92739180  0.64493220  1
  F  F4299  1  0.26862140  0.92739180  0.84493220  1
  F  F4300  1  0.46862140  0.12739180  0.04493220  1
  F  F4301  1  0.46862140  0.12739180  0.24493220  1
  F  F4302  1  0.46862140  0.12739180  0.44493220  1
  F  F4303  1  0.46862140  0.12739180  0.64493220  1
  F  F4304  1  0.46862140  0.12739180  0.84493220  1
  F  F4305  1  0.46862140  0.32739180  0.04493220  1
  F  F4306  1  0.46862140  0.32739180  0.24493220  1
  F  F4307  1  0.46862140  0.32739180  0.44493220  1
  F  F4308  1  0.46862140  0.32739180  0.64493220  1
  F  F4309  1  0.46862140  0.32739180  0.84493220  1
  F  F4310  1  0.46862140  0.52739180  0.04493220  1
  F  F4311  1  0.46862140  0.52739180  0.24493220  1
  F  F4312  1  0.46862140  0.52739180  0.44493220  1
  F  F4313  1  0.46862140  0.52739180  0.64493220  1
  F  F4314  1  0.46862140  0.52739180  0.84493220  1
  F  F4315  1  0.46862140  0.72739180  0.04493220  1
  F  F4316  1  0.46862140  0.72739180  0.24493220  1
  F  F4317  1  0.46862140  0.72739180  0.44493220  1
  F  F4318  1  0.46862140  0.72739180  0.64493220  1
  F  F4319  1  0.46862140  0.72739180  0.84493220  1
  F  F4320  1  0.46862140  0.92739180  0.04493220  1
  F  F4321  1  0.46862140  0.92739180  0.24493220  1
  F  F4322  1  0.46862140  0.92739180  0.44493220  1
  F  F4323  1  0.46862140  0.92739180  0.64493220  1
  F  F4324  1  0.46862140  0.92739180  0.84493220  1
  F  F4325  1  0.66862140  0.12739180  0.04493220  1
  F  F4326  1  0.66862140  0.12739180  0.24493220  1
  F  F4327  1  0.66862140  0.12739180  0.44493220  1
  F  F4328  1  0.66862140  0.12739180  0.64493220  1
  F  F4329  1  0.66862140  0.12739180  0.84493220  1
  F  F4330  1  0.66862140  0.32739180  0.04493220  1
  F  F4331  1  0.66862140  0.32739180  0.24493220  1
  F  F4332  1  0.66862140  0.32739180  0.44493220  1
  F  F4333  1  0.66862140  0.32739180  0.64493220  1
  F  F4334  1  0.66862140  0.32739180  0.84493220  1
  F  F4335  1  0.66862140  0.52739180  0.04493220  1
  F  F4336  1  0.66862140  0.52739180  0.24493220  1
  F  F4337  1  0.66862140  0.52739180  0.44493220  1
  F  F4338  1  0.66862140  0.52739180  0.64493220  1
  F  F4339  1  0.66862140  0.52739180  0.84493220  1
  F  F4340  1  0.66862140  0.72739180  0.04493220  1
  F  F4341  1  0.66862140  0.72739180  0.24493220  1
  F  F4342  1  0.66862140  0.72739180  0.44493220  1
  F  F4343  1  0.66862140  0.72739180  0.64493220  1
  F  F4344  1  0.66862140  0.72739180  0.84493220  1
  F  F4345  1  0.66862140  0.92739180  0.04493220  1
  F  F4346  1  0.66862140  0.92739180  0.24493220  1
  F  F4347  1  0.66862140  0.92739180  0.44493220  1
  F  F4348  1  0.66862140  0.92739180  0.64493220  1
  F  F4349  1  0.66862140  0.92739180  0.84493220  1
  F  F4350  1  0.86862140  0.12739180  0.04493220  1
  F  F4351  1  0.86862140  0.12739180  0.24493220  1
  F  F4352  1  0.86862140  0.12739180  0.44493220  1
  F  F4353  1  0.86862140  0.12739180  0.64493220  1
  F  F4354  1  0.86862140  0.12739180  0.84493220  1
  F  F4355  1  0.86862140  0.32739180  0.04493220  1
  F  F4356  1  0.86862140  0.32739180  0.24493220  1
  F  F4357  1  0.86862140  0.32739180  0.44493220  1
  F  F4358  1  0.86862140  0.32739180  0.64493220  1
  F  F4359  1  0.86862140  0.32739180  0.84493220  1
  F  F4360  1  0.86862140  0.52739180  0.04493220  1
  F  F4361  1  0.86862140  0.52739180  0.24493220  1
  F  F4362  1  0.86862140  0.52739180  0.44493220  1
  F  F4363  1  0.86862140  0.52739180  0.64493220  1
  F  F4364  1  0.86862140  0.52739180  0.84493220  1
  F  F4365  1  0.86862140  0.72739180  0.04493220  1
  F  F4366  1  0.86862140  0.72739180  0.24493220  1
  F  F4367  1  0.86862140  0.72739180  0.44493220  1
  F  F4368  1  0.86862140  0.72739180  0.64493220  1
  F  F4369  1  0.86862140  0.72739180  0.84493220  1
  F  F4370  1  0.86862140  0.92739180  0.04493220  1
  F  F4371  1  0.86862140  0.92739180  0.24493220  1
  F  F4372  1  0.86862140  0.92739180  0.44493220  1
  F  F4373  1  0.86862140  0.92739180  0.64493220  1
  F  F4374  1  0.86862140  0.92739180  0.84493220  1
  F  F4375  1  0.05877040  0.13137860  0.17826540  1
  F  F4376  1  0.05877040  0.13137860  0.37826540  1
  F  F4377  1  0.05877040  0.13137860  0.57826540  1
  F  F4378  1  0.05877040  0.13137860  0.77826540  1
  F  F4379  1  0.05877040  0.13137860  0.97826540  1
  F  F4380  1  0.05877040  0.33137860  0.17826540  1
  F  F4381  1  0.05877040  0.33137860  0.37826540  1
  F  F4382  1  0.05877040  0.33137860  0.57826540  1
  F  F4383  1  0.05877040  0.33137860  0.77826540  1
  F  F4384  1  0.05877040  0.33137860  0.97826540  1
  F  F4385  1  0.05877040  0.53137860  0.17826540  1
  F  F4386  1  0.05877040  0.53137860  0.37826540  1
  F  F4387  1  0.05877040  0.53137860  0.57826540  1
  F  F4388  1  0.05877040  0.53137860  0.77826540  1
  F  F4389  1  0.05877040  0.53137860  0.97826540  1
  F  F4390  1  0.05877040  0.73137860  0.17826540  1
  F  F4391  1  0.05877040  0.73137860  0.37826540  1
  F  F4392  1  0.05877040  0.73137860  0.57826540  1
  F  F4393  1  0.05877040  0.73137860  0.77826540  1
  F  F4394  1  0.05877040  0.73137860  0.97826540  1
  F  F4395  1  0.05877040  0.93137860  0.17826540  1
  F  F4396  1  0.05877040  0.93137860  0.37826540  1
  F  F4397  1  0.05877040  0.93137860  0.57826540  1
  F  F4398  1  0.05877040  0.93137860  0.77826540  1
  F  F4399  1  0.05877040  0.93137860  0.97826540  1
  F  F4400  1  0.25877040  0.13137860  0.17826540  1
  F  F4401  1  0.25877040  0.13137860  0.37826540  1
  F  F4402  1  0.25877040  0.13137860  0.57826540  1
  F  F4403  1  0.25877040  0.13137860  0.77826540  1
  F  F4404  1  0.25877040  0.13137860  0.97826540  1
  F  F4405  1  0.25877040  0.33137860  0.17826540  1
  F  F4406  1  0.25877040  0.33137860  0.37826540  1
  F  F4407  1  0.25877040  0.33137860  0.57826540  1
  F  F4408  1  0.25877040  0.33137860  0.77826540  1
  F  F4409  1  0.25877040  0.33137860  0.97826540  1
  F  F4410  1  0.25877040  0.53137860  0.17826540  1
  F  F4411  1  0.25877040  0.53137860  0.37826540  1
  F  F4412  1  0.25877040  0.53137860  0.57826540  1
  F  F4413  1  0.25877040  0.53137860  0.77826540  1
  F  F4414  1  0.25877040  0.53137860  0.97826540  1
  F  F4415  1  0.25877040  0.73137860  0.17826540  1
  F  F4416  1  0.25877040  0.73137860  0.37826540  1
  F  F4417  1  0.25877040  0.73137860  0.57826540  1
  F  F4418  1  0.25877040  0.73137860  0.77826540  1
  F  F4419  1  0.25877040  0.73137860  0.97826540  1
  F  F4420  1  0.25877040  0.93137860  0.17826540  1
  F  F4421  1  0.25877040  0.93137860  0.37826540  1
  F  F4422  1  0.25877040  0.93137860  0.57826540  1
  F  F4423  1  0.25877040  0.93137860  0.77826540  1
  F  F4424  1  0.25877040  0.93137860  0.97826540  1
  F  F4425  1  0.45877040  0.13137860  0.17826540  1
  F  F4426  1  0.45877040  0.13137860  0.37826540  1
  F  F4427  1  0.45877040  0.13137860  0.57826540  1
  F  F4428  1  0.45877040  0.13137860  0.77826540  1
  F  F4429  1  0.45877040  0.13137860  0.97826540  1
  F  F4430  1  0.45877040  0.33137860  0.17826540  1
  F  F4431  1  0.45877040  0.33137860  0.37826540  1
  F  F4432  1  0.45877040  0.33137860  0.57826540  1
  F  F4433  1  0.45877040  0.33137860  0.77826540  1
  F  F4434  1  0.45877040  0.33137860  0.97826540  1
  F  F4435  1  0.45877040  0.53137860  0.17826540  1
  F  F4436  1  0.45877040  0.53137860  0.37826540  1
  F  F4437  1  0.45877040  0.53137860  0.57826540  1
  F  F4438  1  0.45877040  0.53137860  0.77826540  1
  F  F4439  1  0.45877040  0.53137860  0.97826540  1
  F  F4440  1  0.45877040  0.73137860  0.17826540  1
  F  F4441  1  0.45877040  0.73137860  0.37826540  1
  F  F4442  1  0.45877040  0.73137860  0.57826540  1
  F  F4443  1  0.45877040  0.73137860  0.77826540  1
  F  F4444  1  0.45877040  0.73137860  0.97826540  1
  F  F4445  1  0.45877040  0.93137860  0.17826540  1
  F  F4446  1  0.45877040  0.93137860  0.37826540  1
  F  F4447  1  0.45877040  0.93137860  0.57826540  1
  F  F4448  1  0.45877040  0.93137860  0.77826540  1
  F  F4449  1  0.45877040  0.93137860  0.97826540  1
  F  F4450  1  0.65877040  0.13137860  0.17826540  1
  F  F4451  1  0.65877040  0.13137860  0.37826540  1
  F  F4452  1  0.65877040  0.13137860  0.57826540  1
  F  F4453  1  0.65877040  0.13137860  0.77826540  1
  F  F4454  1  0.65877040  0.13137860  0.97826540  1
  F  F4455  1  0.65877040  0.33137860  0.17826540  1
  F  F4456  1  0.65877040  0.33137860  0.37826540  1
  F  F4457  1  0.65877040  0.33137860  0.57826540  1
  F  F4458  1  0.65877040  0.33137860  0.77826540  1
  F  F4459  1  0.65877040  0.33137860  0.97826540  1
  F  F4460  1  0.65877040  0.53137860  0.17826540  1
  F  F4461  1  0.65877040  0.53137860  0.37826540  1
  F  F4462  1  0.65877040  0.53137860  0.57826540  1
  F  F4463  1  0.65877040  0.53137860  0.77826540  1
  F  F4464  1  0.65877040  0.53137860  0.97826540  1
  F  F4465  1  0.65877040  0.73137860  0.17826540  1
  F  F4466  1  0.65877040  0.73137860  0.37826540  1
  F  F4467  1  0.65877040  0.73137860  0.57826540  1
  F  F4468  1  0.65877040  0.73137860  0.77826540  1
  F  F4469  1  0.65877040  0.73137860  0.97826540  1
  F  F4470  1  0.65877040  0.93137860  0.17826540  1
  F  F4471  1  0.65877040  0.93137860  0.37826540  1
  F  F4472  1  0.65877040  0.93137860  0.57826540  1
  F  F4473  1  0.65877040  0.93137860  0.77826540  1
  F  F4474  1  0.65877040  0.93137860  0.97826540  1
  F  F4475  1  0.85877040  0.13137860  0.17826540  1
  F  F4476  1  0.85877040  0.13137860  0.37826540  1
  F  F4477  1  0.85877040  0.13137860  0.57826540  1
  F  F4478  1  0.85877040  0.13137860  0.77826540  1
  F  F4479  1  0.85877040  0.13137860  0.97826540  1
  F  F4480  1  0.85877040  0.33137860  0.17826540  1
  F  F4481  1  0.85877040  0.33137860  0.37826540  1
  F  F4482  1  0.85877040  0.33137860  0.57826540  1
  F  F4483  1  0.85877040  0.33137860  0.77826540  1
  F  F4484  1  0.85877040  0.33137860  0.97826540  1
  F  F4485  1  0.85877040  0.53137860  0.17826540  1
  F  F4486  1  0.85877040  0.53137860  0.37826540  1
  F  F4487  1  0.85877040  0.53137860  0.57826540  1
  F  F4488  1  0.85877040  0.53137860  0.77826540  1
  F  F4489  1  0.85877040  0.53137860  0.97826540  1
  F  F4490  1  0.85877040  0.73137860  0.17826540  1
  F  F4491  1  0.85877040  0.73137860  0.37826540  1
  F  F4492  1  0.85877040  0.73137860  0.57826540  1
  F  F4493  1  0.85877040  0.73137860  0.77826540  1
  F  F4494  1  0.85877040  0.73137860  0.97826540  1
  F  F4495  1  0.85877040  0.93137860  0.17826540  1
  F  F4496  1  0.85877040  0.93137860  0.37826540  1
  F  F4497  1  0.85877040  0.93137860  0.57826540  1
  F  F4498  1  0.85877040  0.93137860  0.77826540  1
  F  F4499  1  0.85877040  0.93137860  0.97826540  1
  F  F4500  1  0.14122960  0.07260820  0.08840120  1
  F  F4501  1  0.14122960  0.07260820  0.28840120  1
  F  F4502  1  0.14122960  0.07260820  0.48840120  1
  F  F4503  1  0.14122960  0.07260820  0.68840120  1
  F  F4504  1  0.14122960  0.07260820  0.88840120  1
  F  F4505  1  0.14122960  0.27260820  0.08840120  1
  F  F4506  1  0.14122960  0.27260820  0.28840120  1
  F  F4507  1  0.14122960  0.27260820  0.48840120  1
  F  F4508  1  0.14122960  0.27260820  0.68840120  1
  F  F4509  1  0.14122960  0.27260820  0.88840120  1
  F  F4510  1  0.14122960  0.47260820  0.08840120  1
  F  F4511  1  0.14122960  0.47260820  0.28840120  1
  F  F4512  1  0.14122960  0.47260820  0.48840120  1
  F  F4513  1  0.14122960  0.47260820  0.68840120  1
  F  F4514  1  0.14122960  0.47260820  0.88840120  1
  F  F4515  1  0.14122960  0.67260820  0.08840120  1
  F  F4516  1  0.14122960  0.67260820  0.28840120  1
  F  F4517  1  0.14122960  0.67260820  0.48840120  1
  F  F4518  1  0.14122960  0.67260820  0.68840120  1
  F  F4519  1  0.14122960  0.67260820  0.88840120  1
  F  F4520  1  0.14122960  0.87260820  0.08840120  1
  F  F4521  1  0.14122960  0.87260820  0.28840120  1
  F  F4522  1  0.14122960  0.87260820  0.48840120  1
  F  F4523  1  0.14122960  0.87260820  0.68840120  1
  F  F4524  1  0.14122960  0.87260820  0.88840120  1
  F  F4525  1  0.34122960  0.07260820  0.08840120  1
  F  F4526  1  0.34122960  0.07260820  0.28840120  1
  F  F4527  1  0.34122960  0.07260820  0.48840120  1
  F  F4528  1  0.34122960  0.07260820  0.68840120  1
  F  F4529  1  0.34122960  0.07260820  0.88840120  1
  F  F4530  1  0.34122960  0.27260820  0.08840120  1
  F  F4531  1  0.34122960  0.27260820  0.28840120  1
  F  F4532  1  0.34122960  0.27260820  0.48840120  1
  F  F4533  1  0.34122960  0.27260820  0.68840120  1
  F  F4534  1  0.34122960  0.27260820  0.88840120  1
  F  F4535  1  0.34122960  0.47260820  0.08840120  1
  F  F4536  1  0.34122960  0.47260820  0.28840120  1
  F  F4537  1  0.34122960  0.47260820  0.48840120  1
  F  F4538  1  0.34122960  0.47260820  0.68840120  1
  F  F4539  1  0.34122960  0.47260820  0.88840120  1
  F  F4540  1  0.34122960  0.67260820  0.08840120  1
  F  F4541  1  0.34122960  0.67260820  0.28840120  1
  F  F4542  1  0.34122960  0.67260820  0.48840120  1
  F  F4543  1  0.34122960  0.67260820  0.68840120  1
  F  F4544  1  0.34122960  0.67260820  0.88840120  1
  F  F4545  1  0.34122960  0.87260820  0.08840120  1
  F  F4546  1  0.34122960  0.87260820  0.28840120  1
  F  F4547  1  0.34122960  0.87260820  0.48840120  1
  F  F4548  1  0.34122960  0.87260820  0.68840120  1
  F  F4549  1  0.34122960  0.87260820  0.88840120  1
  F  F4550  1  0.54122960  0.07260820  0.08840120  1
  F  F4551  1  0.54122960  0.07260820  0.28840120  1
  F  F4552  1  0.54122960  0.07260820  0.48840120  1
  F  F4553  1  0.54122960  0.07260820  0.68840120  1
  F  F4554  1  0.54122960  0.07260820  0.88840120  1
  F  F4555  1  0.54122960  0.27260820  0.08840120  1
  F  F4556  1  0.54122960  0.27260820  0.28840120  1
  F  F4557  1  0.54122960  0.27260820  0.48840120  1
  F  F4558  1  0.54122960  0.27260820  0.68840120  1
  F  F4559  1  0.54122960  0.27260820  0.88840120  1
  F  F4560  1  0.54122960  0.47260820  0.08840120  1
  F  F4561  1  0.54122960  0.47260820  0.28840120  1
  F  F4562  1  0.54122960  0.47260820  0.48840120  1
  F  F4563  1  0.54122960  0.47260820  0.68840120  1
  F  F4564  1  0.54122960  0.47260820  0.88840120  1
  F  F4565  1  0.54122960  0.67260820  0.08840120  1
  F  F4566  1  0.54122960  0.67260820  0.28840120  1
  F  F4567  1  0.54122960  0.67260820  0.48840120  1
  F  F4568  1  0.54122960  0.67260820  0.68840120  1
  F  F4569  1  0.54122960  0.67260820  0.88840120  1
  F  F4570  1  0.54122960  0.87260820  0.08840120  1
  F  F4571  1  0.54122960  0.87260820  0.28840120  1
  F  F4572  1  0.54122960  0.87260820  0.48840120  1
  F  F4573  1  0.54122960  0.87260820  0.68840120  1
  F  F4574  1  0.54122960  0.87260820  0.88840120  1
  F  F4575  1  0.74122960  0.07260820  0.08840120  1
  F  F4576  1  0.74122960  0.07260820  0.28840120  1
  F  F4577  1  0.74122960  0.07260820  0.48840120  1
  F  F4578  1  0.74122960  0.07260820  0.68840120  1
  F  F4579  1  0.74122960  0.07260820  0.88840120  1
  F  F4580  1  0.74122960  0.27260820  0.08840120  1
  F  F4581  1  0.74122960  0.27260820  0.28840120  1
  F  F4582  1  0.74122960  0.27260820  0.48840120  1
  F  F4583  1  0.74122960  0.27260820  0.68840120  1
  F  F4584  1  0.74122960  0.27260820  0.88840120  1
  F  F4585  1  0.74122960  0.47260820  0.08840120  1
  F  F4586  1  0.74122960  0.47260820  0.28840120  1
  F  F4587  1  0.74122960  0.47260820  0.48840120  1
  F  F4588  1  0.74122960  0.47260820  0.68840120  1
  F  F4589  1  0.74122960  0.47260820  0.88840120  1
  F  F4590  1  0.74122960  0.67260820  0.08840120  1
  F  F4591  1  0.74122960  0.67260820  0.28840120  1
  F  F4592  1  0.74122960  0.67260820  0.48840120  1
  F  F4593  1  0.74122960  0.67260820  0.68840120  1
  F  F4594  1  0.74122960  0.67260820  0.88840120  1
  F  F4595  1  0.74122960  0.87260820  0.08840120  1
  F  F4596  1  0.74122960  0.87260820  0.28840120  1
  F  F4597  1  0.74122960  0.87260820  0.48840120  1
  F  F4598  1  0.74122960  0.87260820  0.68840120  1
  F  F4599  1  0.74122960  0.87260820  0.88840120  1
  F  F4600  1  0.94122960  0.07260820  0.08840120  1
  F  F4601  1  0.94122960  0.07260820  0.28840120  1
  F  F4602  1  0.94122960  0.07260820  0.48840120  1
  F  F4603  1  0.94122960  0.07260820  0.68840120  1
  F  F4604  1  0.94122960  0.07260820  0.88840120  1
  F  F4605  1  0.94122960  0.27260820  0.08840120  1
  F  F4606  1  0.94122960  0.27260820  0.28840120  1
  F  F4607  1  0.94122960  0.27260820  0.48840120  1
  F  F4608  1  0.94122960  0.27260820  0.68840120  1
  F  F4609  1  0.94122960  0.27260820  0.88840120  1
  F  F4610  1  0.94122960  0.47260820  0.08840120  1
  F  F4611  1  0.94122960  0.47260820  0.28840120  1
  F  F4612  1  0.94122960  0.47260820  0.48840120  1
  F  F4613  1  0.94122960  0.47260820  0.68840120  1
  F  F4614  1  0.94122960  0.47260820  0.88840120  1
  F  F4615  1  0.94122960  0.67260820  0.08840120  1
  F  F4616  1  0.94122960  0.67260820  0.28840120  1
  F  F4617  1  0.94122960  0.67260820  0.48840120  1
  F  F4618  1  0.94122960  0.67260820  0.68840120  1
  F  F4619  1  0.94122960  0.67260820  0.88840120  1
  F  F4620  1  0.94122960  0.87260820  0.08840120  1
  F  F4621  1  0.94122960  0.87260820  0.28840120  1
  F  F4622  1  0.94122960  0.87260820  0.48840120  1
  F  F4623  1  0.94122960  0.87260820  0.68840120  1
  F  F4624  1  0.94122960  0.87260820  0.88840120  1
  F  F4625  1  0.16050280  0.03350360  0.10997640  1
  F  F4626  1  0.16050280  0.03350360  0.30997640  1
  F  F4627  1  0.16050280  0.03350360  0.50997640  1
  F  F4628  1  0.16050280  0.03350360  0.70997640  1
  F  F4629  1  0.16050280  0.03350360  0.90997640  1
  F  F4630  1  0.16050280  0.23350360  0.10997640  1
  F  F4631  1  0.16050280  0.23350360  0.30997640  1
  F  F4632  1  0.16050280  0.23350360  0.50997640  1
  F  F4633  1  0.16050280  0.23350360  0.70997640  1
  F  F4634  1  0.16050280  0.23350360  0.90997640  1
  F  F4635  1  0.16050280  0.43350360  0.10997640  1
  F  F4636  1  0.16050280  0.43350360  0.30997640  1
  F  F4637  1  0.16050280  0.43350360  0.50997640  1
  F  F4638  1  0.16050280  0.43350360  0.70997640  1
  F  F4639  1  0.16050280  0.43350360  0.90997640  1
  F  F4640  1  0.16050280  0.63350360  0.10997640  1
  F  F4641  1  0.16050280  0.63350360  0.30997640  1
  F  F4642  1  0.16050280  0.63350360  0.50997640  1
  F  F4643  1  0.16050280  0.63350360  0.70997640  1
  F  F4644  1  0.16050280  0.63350360  0.90997640  1
  F  F4645  1  0.16050280  0.83350360  0.10997640  1
  F  F4646  1  0.16050280  0.83350360  0.30997640  1
  F  F4647  1  0.16050280  0.83350360  0.50997640  1
  F  F4648  1  0.16050280  0.83350360  0.70997640  1
  F  F4649  1  0.16050280  0.83350360  0.90997640  1
  F  F4650  1  0.36050280  0.03350360  0.10997640  1
  F  F4651  1  0.36050280  0.03350360  0.30997640  1
  F  F4652  1  0.36050280  0.03350360  0.50997640  1
  F  F4653  1  0.36050280  0.03350360  0.70997640  1
  F  F4654  1  0.36050280  0.03350360  0.90997640  1
  F  F4655  1  0.36050280  0.23350360  0.10997640  1
  F  F4656  1  0.36050280  0.23350360  0.30997640  1
  F  F4657  1  0.36050280  0.23350360  0.50997640  1
  F  F4658  1  0.36050280  0.23350360  0.70997640  1
  F  F4659  1  0.36050280  0.23350360  0.90997640  1
  F  F4660  1  0.36050280  0.43350360  0.10997640  1
  F  F4661  1  0.36050280  0.43350360  0.30997640  1
  F  F4662  1  0.36050280  0.43350360  0.50997640  1
  F  F4663  1  0.36050280  0.43350360  0.70997640  1
  F  F4664  1  0.36050280  0.43350360  0.90997640  1
  F  F4665  1  0.36050280  0.63350360  0.10997640  1
  F  F4666  1  0.36050280  0.63350360  0.30997640  1
  F  F4667  1  0.36050280  0.63350360  0.50997640  1
  F  F4668  1  0.36050280  0.63350360  0.70997640  1
  F  F4669  1  0.36050280  0.63350360  0.90997640  1
  F  F4670  1  0.36050280  0.83350360  0.10997640  1
  F  F4671  1  0.36050280  0.83350360  0.30997640  1
  F  F4672  1  0.36050280  0.83350360  0.50997640  1
  F  F4673  1  0.36050280  0.83350360  0.70997640  1
  F  F4674  1  0.36050280  0.83350360  0.90997640  1
  F  F4675  1  0.56050280  0.03350360  0.10997640  1
  F  F4676  1  0.56050280  0.03350360  0.30997640  1
  F  F4677  1  0.56050280  0.03350360  0.50997640  1
  F  F4678  1  0.56050280  0.03350360  0.70997640  1
  F  F4679  1  0.56050280  0.03350360  0.90997640  1
  F  F4680  1  0.56050280  0.23350360  0.10997640  1
  F  F4681  1  0.56050280  0.23350360  0.30997640  1
  F  F4682  1  0.56050280  0.23350360  0.50997640  1
  F  F4683  1  0.56050280  0.23350360  0.70997640  1
  F  F4684  1  0.56050280  0.23350360  0.90997640  1
  F  F4685  1  0.56050280  0.43350360  0.10997640  1
  F  F4686  1  0.56050280  0.43350360  0.30997640  1
  F  F4687  1  0.56050280  0.43350360  0.50997640  1
  F  F4688  1  0.56050280  0.43350360  0.70997640  1
  F  F4689  1  0.56050280  0.43350360  0.90997640  1
  F  F4690  1  0.56050280  0.63350360  0.10997640  1
  F  F4691  1  0.56050280  0.63350360  0.30997640  1
  F  F4692  1  0.56050280  0.63350360  0.50997640  1
  F  F4693  1  0.56050280  0.63350360  0.70997640  1
  F  F4694  1  0.56050280  0.63350360  0.90997640  1
  F  F4695  1  0.56050280  0.83350360  0.10997640  1
  F  F4696  1  0.56050280  0.83350360  0.30997640  1
  F  F4697  1  0.56050280  0.83350360  0.50997640  1
  F  F4698  1  0.56050280  0.83350360  0.70997640  1
  F  F4699  1  0.56050280  0.83350360  0.90997640  1
  F  F4700  1  0.76050280  0.03350360  0.10997640  1
  F  F4701  1  0.76050280  0.03350360  0.30997640  1
  F  F4702  1  0.76050280  0.03350360  0.50997640  1
  F  F4703  1  0.76050280  0.03350360  0.70997640  1
  F  F4704  1  0.76050280  0.03350360  0.90997640  1
  F  F4705  1  0.76050280  0.23350360  0.10997640  1
  F  F4706  1  0.76050280  0.23350360  0.30997640  1
  F  F4707  1  0.76050280  0.23350360  0.50997640  1
  F  F4708  1  0.76050280  0.23350360  0.70997640  1
  F  F4709  1  0.76050280  0.23350360  0.90997640  1
  F  F4710  1  0.76050280  0.43350360  0.10997640  1
  F  F4711  1  0.76050280  0.43350360  0.30997640  1
  F  F4712  1  0.76050280  0.43350360  0.50997640  1
  F  F4713  1  0.76050280  0.43350360  0.70997640  1
  F  F4714  1  0.76050280  0.43350360  0.90997640  1
  F  F4715  1  0.76050280  0.63350360  0.10997640  1
  F  F4716  1  0.76050280  0.63350360  0.30997640  1
  F  F4717  1  0.76050280  0.63350360  0.50997640  1
  F  F4718  1  0.76050280  0.63350360  0.70997640  1
  F  F4719  1  0.76050280  0.63350360  0.90997640  1
  F  F4720  1  0.76050280  0.83350360  0.10997640  1
  F  F4721  1  0.76050280  0.83350360  0.30997640  1
  F  F4722  1  0.76050280  0.83350360  0.50997640  1
  F  F4723  1  0.76050280  0.83350360  0.70997640  1
  F  F4724  1  0.76050280  0.83350360  0.90997640  1
  F  F4725  1  0.96050280  0.03350360  0.10997640  1
  F  F4726  1  0.96050280  0.03350360  0.30997640  1
  F  F4727  1  0.96050280  0.03350360  0.50997640  1
  F  F4728  1  0.96050280  0.03350360  0.70997640  1
  F  F4729  1  0.96050280  0.03350360  0.90997640  1
  F  F4730  1  0.96050280  0.23350360  0.10997640  1
  F  F4731  1  0.96050280  0.23350360  0.30997640  1
  F  F4732  1  0.96050280  0.23350360  0.50997640  1
  F  F4733  1  0.96050280  0.23350360  0.70997640  1
  F  F4734  1  0.96050280  0.23350360  0.90997640  1
  F  F4735  1  0.96050280  0.43350360  0.10997640  1
  F  F4736  1  0.96050280  0.43350360  0.30997640  1
  F  F4737  1  0.96050280  0.43350360  0.50997640  1
  F  F4738  1  0.96050280  0.43350360  0.70997640  1
  F  F4739  1  0.96050280  0.43350360  0.90997640  1
  F  F4740  1  0.96050280  0.63350360  0.10997640  1
  F  F4741  1  0.96050280  0.63350360  0.30997640  1
  F  F4742  1  0.96050280  0.63350360  0.50997640  1
  F  F4743  1  0.96050280  0.63350360  0.70997640  1
  F  F4744  1  0.96050280  0.63350360  0.90997640  1
  F  F4745  1  0.96050280  0.83350360  0.10997640  1
  F  F4746  1  0.96050280  0.83350360  0.30997640  1
  F  F4747  1  0.96050280  0.83350360  0.50997640  1
  F  F4748  1  0.96050280  0.83350360  0.70997640  1
  F  F4749  1  0.96050280  0.83350360  0.90997640  1
  F  F4750  1  0.16829520  0.14414720  0.11430800  1
  F  F4751  1  0.16829520  0.14414720  0.31430800  1
  F  F4752  1  0.16829520  0.14414720  0.51430800  1
  F  F4753  1  0.16829520  0.14414720  0.71430800  1
  F  F4754  1  0.16829520  0.14414720  0.91430800  1
  F  F4755  1  0.16829520  0.34414720  0.11430800  1
  F  F4756  1  0.16829520  0.34414720  0.31430800  1
  F  F4757  1  0.16829520  0.34414720  0.51430800  1
  F  F4758  1  0.16829520  0.34414720  0.71430800  1
  F  F4759  1  0.16829520  0.34414720  0.91430800  1
  F  F4760  1  0.16829520  0.54414720  0.11430800  1
  F  F4761  1  0.16829520  0.54414720  0.31430800  1
  F  F4762  1  0.16829520  0.54414720  0.51430800  1
  F  F4763  1  0.16829520  0.54414720  0.71430800  1
  F  F4764  1  0.16829520  0.54414720  0.91430800  1
  F  F4765  1  0.16829520  0.74414720  0.11430800  1
  F  F4766  1  0.16829520  0.74414720  0.31430800  1
  F  F4767  1  0.16829520  0.74414720  0.51430800  1
  F  F4768  1  0.16829520  0.74414720  0.71430800  1
  F  F4769  1  0.16829520  0.74414720  0.91430800  1
  F  F4770  1  0.16829520  0.94414720  0.11430800  1
  F  F4771  1  0.16829520  0.94414720  0.31430800  1
  F  F4772  1  0.16829520  0.94414720  0.51430800  1
  F  F4773  1  0.16829520  0.94414720  0.71430800  1
  F  F4774  1  0.16829520  0.94414720  0.91430800  1
  F  F4775  1  0.36829520  0.14414720  0.11430800  1
  F  F4776  1  0.36829520  0.14414720  0.31430800  1
  F  F4777  1  0.36829520  0.14414720  0.51430800  1
  F  F4778  1  0.36829520  0.14414720  0.71430800  1
  F  F4779  1  0.36829520  0.14414720  0.91430800  1
  F  F4780  1  0.36829520  0.34414720  0.11430800  1
  F  F4781  1  0.36829520  0.34414720  0.31430800  1
  F  F4782  1  0.36829520  0.34414720  0.51430800  1
  F  F4783  1  0.36829520  0.34414720  0.71430800  1
  F  F4784  1  0.36829520  0.34414720  0.91430800  1
  F  F4785  1  0.36829520  0.54414720  0.11430800  1
  F  F4786  1  0.36829520  0.54414720  0.31430800  1
  F  F4787  1  0.36829520  0.54414720  0.51430800  1
  F  F4788  1  0.36829520  0.54414720  0.71430800  1
  F  F4789  1  0.36829520  0.54414720  0.91430800  1
  F  F4790  1  0.36829520  0.74414720  0.11430800  1
  F  F4791  1  0.36829520  0.74414720  0.31430800  1
  F  F4792  1  0.36829520  0.74414720  0.51430800  1
  F  F4793  1  0.36829520  0.74414720  0.71430800  1
  F  F4794  1  0.36829520  0.74414720  0.91430800  1
  F  F4795  1  0.36829520  0.94414720  0.11430800  1
  F  F4796  1  0.36829520  0.94414720  0.31430800  1
  F  F4797  1  0.36829520  0.94414720  0.51430800  1
  F  F4798  1  0.36829520  0.94414720  0.71430800  1
  F  F4799  1  0.36829520  0.94414720  0.91430800  1
  F  F4800  1  0.56829520  0.14414720  0.11430800  1
  F  F4801  1  0.56829520  0.14414720  0.31430800  1
  F  F4802  1  0.56829520  0.14414720  0.51430800  1
  F  F4803  1  0.56829520  0.14414720  0.71430800  1
  F  F4804  1  0.56829520  0.14414720  0.91430800  1
  F  F4805  1  0.56829520  0.34414720  0.11430800  1
  F  F4806  1  0.56829520  0.34414720  0.31430800  1
  F  F4807  1  0.56829520  0.34414720  0.51430800  1
  F  F4808  1  0.56829520  0.34414720  0.71430800  1
  F  F4809  1  0.56829520  0.34414720  0.91430800  1
  F  F4810  1  0.56829520  0.54414720  0.11430800  1
  F  F4811  1  0.56829520  0.54414720  0.31430800  1
  F  F4812  1  0.56829520  0.54414720  0.51430800  1
  F  F4813  1  0.56829520  0.54414720  0.71430800  1
  F  F4814  1  0.56829520  0.54414720  0.91430800  1
  F  F4815  1  0.56829520  0.74414720  0.11430800  1
  F  F4816  1  0.56829520  0.74414720  0.31430800  1
  F  F4817  1  0.56829520  0.74414720  0.51430800  1
  F  F4818  1  0.56829520  0.74414720  0.71430800  1
  F  F4819  1  0.56829520  0.74414720  0.91430800  1
  F  F4820  1  0.56829520  0.94414720  0.11430800  1
  F  F4821  1  0.56829520  0.94414720  0.31430800  1
  F  F4822  1  0.56829520  0.94414720  0.51430800  1
  F  F4823  1  0.56829520  0.94414720  0.71430800  1
  F  F4824  1  0.56829520  0.94414720  0.91430800  1
  F  F4825  1  0.76829520  0.14414720  0.11430800  1
  F  F4826  1  0.76829520  0.14414720  0.31430800  1
  F  F4827  1  0.76829520  0.14414720  0.51430800  1
  F  F4828  1  0.76829520  0.14414720  0.71430800  1
  F  F4829  1  0.76829520  0.14414720  0.91430800  1
  F  F4830  1  0.76829520  0.34414720  0.11430800  1
  F  F4831  1  0.76829520  0.34414720  0.31430800  1
  F  F4832  1  0.76829520  0.34414720  0.51430800  1
  F  F4833  1  0.76829520  0.34414720  0.71430800  1
  F  F4834  1  0.76829520  0.34414720  0.91430800  1
  F  F4835  1  0.76829520  0.54414720  0.11430800  1
  F  F4836  1  0.76829520  0.54414720  0.31430800  1
  F  F4837  1  0.76829520  0.54414720  0.51430800  1
  F  F4838  1  0.76829520  0.54414720  0.71430800  1
  F  F4839  1  0.76829520  0.54414720  0.91430800  1
  F  F4840  1  0.76829520  0.74414720  0.11430800  1
  F  F4841  1  0.76829520  0.74414720  0.31430800  1
  F  F4842  1  0.76829520  0.74414720  0.51430800  1
  F  F4843  1  0.76829520  0.74414720  0.71430800  1
  F  F4844  1  0.76829520  0.74414720  0.91430800  1
  F  F4845  1  0.76829520  0.94414720  0.11430800  1
  F  F4846  1  0.76829520  0.94414720  0.31430800  1
  F  F4847  1  0.76829520  0.94414720  0.51430800  1
  F  F4848  1  0.76829520  0.94414720  0.71430800  1
  F  F4849  1  0.76829520  0.94414720  0.91430800  1
  F  F4850  1  0.96829520  0.14414720  0.11430800  1
  F  F4851  1  0.96829520  0.14414720  0.31430800  1
  F  F4852  1  0.96829520  0.14414720  0.51430800  1
  F  F4853  1  0.96829520  0.14414720  0.71430800  1
  F  F4854  1  0.96829520  0.14414720  0.91430800  1
  F  F4855  1  0.96829520  0.34414720  0.11430800  1
  F  F4856  1  0.96829520  0.34414720  0.31430800  1
  F  F4857  1  0.96829520  0.34414720  0.51430800  1
  F  F4858  1  0.96829520  0.34414720  0.71430800  1
  F  F4859  1  0.96829520  0.34414720  0.91430800  1
  F  F4860  1  0.96829520  0.54414720  0.11430800  1
  F  F4861  1  0.96829520  0.54414720  0.31430800  1
  F  F4862  1  0.96829520  0.54414720  0.51430800  1
  F  F4863  1  0.96829520  0.54414720  0.71430800  1
  F  F4864  1  0.96829520  0.54414720  0.91430800  1
  F  F4865  1  0.96829520  0.74414720  0.11430800  1
  F  F4866  1  0.96829520  0.74414720  0.31430800  1
  F  F4867  1  0.96829520  0.74414720  0.51430800  1
  F  F4868  1  0.96829520  0.74414720  0.71430800  1
  F  F4869  1  0.96829520  0.74414720  0.91430800  1
  F  F4870  1  0.96829520  0.94414720  0.11430800  1
  F  F4871  1  0.96829520  0.94414720  0.31430800  1
  F  F4872  1  0.96829520  0.94414720  0.51430800  1
  F  F4873  1  0.96829520  0.94414720  0.71430800  1
  F  F4874  1  0.96829520  0.94414720  0.91430800  1
